# generated using pymatgen
data_BaLi2(SiO3)2
_symmetry_space_group_name_H-M   'P 1'
_cell_length_a   8.29266788
_cell_length_b   8.29266788
_cell_length_c   14.42238800
_cell_angle_alpha   92.02875362
_cell_angle_beta   92.02875362
_cell_angle_gamma   113.46113892
_symmetry_Int_Tables_number   1
_chemical_formula_structural   BaLi2(SiO3)2
_chemical_formula_sum   'Ba2 Li4 Si4 O12'
_cell_volume   907.915187408
_cell_formula_units_Z   2
loop_
 _symmetry_equiv_pos_site_id
 _symmetry_equiv_pos_as_xyz
  1  'x, y, z'
loop_
 _atom_site_type_symbol
 _atom_site_label
 _atom_site_symmetry_multiplicity
 _atom_site_fract_x
 _atom_site_fract_y
 _atom_site_fract_z
 _atom_site_occupancy
  Ba  Ba1  1  0.715000  0.285000  0.250000  1
  Ba  Ba2  1  0.285000  0.715000  0.750000  1
  Li  Li3  1  0.633000  0.273000  0.908000  1
  Li  Li4  1  0.727000  0.367000  0.592000  1
  Li  Li5  1  0.367000  0.727000  0.092000  1
  Li  Li6  1  0.273000  0.633000  0.408000  1
  Si  Si7  1  0.852000  0.858000  0.866000  1
  Si  Si8  1  0.142000  0.148000  0.634000  1
  Si  Si9  1  0.148000  0.142000  0.134000  1
  Si  Si10  1  0.858000  0.852000  0.366000  1
  O  O11  1  0.954000  0.652000  0.830000  1
  O  O12  1  0.348000  0.046000  0.670000  1
  O  O13  1  0.046000  0.348000  0.170000  1
  O  O14  1  0.652000  0.954000  0.330000  1
  O  O15  1  0.459000  0.245000  0.114000  1
  O  O16  1  0.755000  0.541000  0.386000  1
  O  O17  1  0.541000  0.755000  0.886000  1
  O  O18  1  0.245000  0.459000  0.614000  1
  O  O19  1  0.000000  0.000000  0.500000  1
  O  O20  1  0.000000  0.000000  0.000000  1
  O  O21  1  0.065000  0.935000  0.250000  1
  O  O22  1  0.935000  0.065000  0.750000  1
