# generated using pymatgen
data_Ca2Mg2B2O7
_symmetry_space_group_name_H-M   'P 1'
_cell_length_a   12.12916800
_cell_length_b   12.12916833
_cell_length_c   11.94029900
_cell_angle_alpha   90.00000000
_cell_angle_beta   90.00000000
_cell_angle_gamma   119.99999909
_symmetry_Int_Tables_number   1
_chemical_formula_structural   Ca2Mg2B2O7
_chemical_formula_sum   'Ca6 Mg6 B6 O21'
_cell_volume   1521.275506
_cell_formula_units_Z   3
loop_
 _symmetry_equiv_pos_site_id
 _symmetry_equiv_pos_as_xyz
  1  'x, y, z'
loop_
 _atom_site_type_symbol
 _atom_site_label
 _atom_site_symmetry_multiplicity
 _atom_site_fract_x
 _atom_site_fract_y
 _atom_site_fract_z
 _atom_site_occupancy
  Ca  Ca1  1  0.000000  0.000000  0.701000  1
  Ca  Ca2  1  0.000000  0.000000  0.299000  1
  Ca  Ca3  1  0.333400  0.666700  0.778000  1
  Ca  Ca4  1  0.666600  0.333300  0.222000  1
  Ca  Ca5  1  0.666600  0.333300  0.817000  1
  Ca  Ca6  1  0.333400  0.666700  0.183000  1
  Mg  Mg7  1  0.358000  0.000000  0.500000  1
  Mg  Mg8  1  0.642000  0.642000  0.500000  1
  Mg  Mg9  1  0.000000  0.358000  0.500000  1
  Mg  Mg10  1  0.309000  0.000000  0.000000  1
  Mg  Mg11  1  0.691000  0.691000  0.000000  1
  Mg  Mg12  1  0.000000  0.309000  0.000000  1
  B  B13  1  0.001000  0.666000  0.743000  1
  B  B14  1  0.665000  0.999000  0.743000  1
  B  B15  1  0.334000  0.335000  0.743000  1
  B  B16  1  0.999000  0.665000  0.257000  1
  B  B17  1  0.666000  0.001000  0.257000  1
  B  B18  1  0.335000  0.334000  0.257000  1
  O  O19  1  0.943000  0.786000  0.774000  1
  O  O20  1  0.843000  0.057000  0.774000  1
  O  O21  1  0.214000  0.157000  0.774000  1
  O  O22  1  0.057000  0.843000  0.226000  1
  O  O23  1  0.786000  0.943000  0.226000  1
  O  O24  1  0.157000  0.214000  0.226000  1
  O  O25  1  0.882000  0.484000  0.748000  1
  O  O26  1  0.602000  0.118000  0.748000  1
  O  O27  1  0.516000  0.398000  0.748000  1
  O  O28  1  0.118000  0.602000  0.252000  1
  O  O29  1  0.484000  0.882000  0.252000  1
  O  O30  1  0.398000  0.516000  0.252000  1
  O  O31  1  0.178400  0.726400  0.707000  1
  O  O32  1  0.548000  0.821600  0.707000  1
  O  O33  1  0.273600  0.452000  0.707000  1
  O  O34  1  0.821600  0.548000  0.293000  1
  O  O35  1  0.726400  0.178400  0.293000  1
  O  O36  1  0.452000  0.273600  0.293000  1
  O  O37  1  0.000000  0.000000  0.500000  1
  O  O38  1  0.333400  0.666700  0.980000  1
  O  O39  1  0.666600  0.333300  0.020000  1
