# generated using pymatgen
data_Ca2MgB4O9
_symmetry_space_group_name_H-M   'P 1'
_cell_length_a   8.06275032
_cell_length_b   12.13498200
_cell_length_c   16.11818300
_cell_angle_alpha   90.00000000
_cell_angle_beta   90.37999436
_cell_angle_gamma   90.00000000
_symmetry_Int_Tables_number   1
_chemical_formula_structural   Ca2MgB4O9
_chemical_formula_sum   'Ca8 Mg4 B16 O36'
_cell_volume   1576.98977926
_cell_formula_units_Z   4
loop_
 _symmetry_equiv_pos_site_id
 _symmetry_equiv_pos_as_xyz
  1  'x, y, z'
loop_
 _atom_site_type_symbol
 _atom_site_label
 _atom_site_symmetry_multiplicity
 _atom_site_fract_x
 _atom_site_fract_y
 _atom_site_fract_z
 _atom_site_occupancy
  Ca  Ca1  1  0.769080  0.153710  0.365190  1
  Ca  Ca2  1  0.230920  0.653710  0.634810  1
  Ca  Ca3  1  0.777570  0.375900  0.117580  1
  Ca  Ca4  1  0.222430  0.875900  0.882420  1
  Ca  Ca5  1  0.254000  0.657880  0.119140  1
  Ca  Ca6  1  0.746000  0.157880  0.880860  1
  Ca  Ca7  1  0.709940  0.431200  0.626070  1
  Ca  Ca8  1  0.290060  0.931200  0.373930  1
  Mg  Mg9  1  0.256160  0.149010  0.129770  1
  Mg  Mg10  1  0.743840  0.649010  0.870230  1
  Mg  Mg11  1  0.755040  0.658360  0.382330  1
  Mg  Mg12  1  0.244960  0.158360  0.617670  1
  B  B13  1  0.665900  0.840700  0.015000  1
  B  B14  1  0.334100  0.340700  0.985000  1
  B  B15  1  0.930200  0.982200  0.092400  1
  B  B16  1  0.069800  0.482200  0.907600  1
  B  B17  1  0.956300  0.960100  0.576800  1
  B  B18  1  0.043700  0.460100  0.423200  1
  B  B19  1  0.860500  0.848500  0.244000  1
  B  B20  1  0.139500  0.348500  0.756000  1
  B  B21  1  0.339200  0.322700  0.454900  1
  B  B22  1  0.660800  0.822700  0.545100  1
  B  B23  1  0.491200  0.459900  0.326600  1
  B  B24  1  0.508800  0.959900  0.673400  1
  B  B25  1  0.192500  0.322900  0.291200  1
  B  B26  1  0.807500  0.822900  0.708800  1
  B  B27  1  0.596400  0.985300  0.161900  1
  B  B28  1  0.403600  0.485300  0.838100  1
  O  O29  1  0.025000  0.414100  0.327600  1
  O  O30  1  0.975000  0.914100  0.672400  1
  O  O31  1  0.096100  0.058500  0.050600  1
  O  O32  1  0.903900  0.558500  0.949400  1
  O  O33  1  0.857400  0.885400  0.013300  1
  O  O34  1  0.142600  0.385400  0.986700  1
  O  O35  1  0.914200  0.561800  0.459200  1
  O  O36  1  0.085800  0.061800  0.540800  1
  O  O37  1  0.614300  0.563500  0.294500  1
  O  O38  1  0.385700  0.063500  0.705500  1
  O  O39  1  0.265500  0.241400  0.376000  1
  O  O40  1  0.734500  0.741400  0.624000  1
  O  O41  1  0.006600  0.897800  0.180100  1
  O  O42  1  0.993400  0.397800  0.819900  1
  O  O43  1  0.405700  0.244700  0.047400  1
  O  O44  1  0.594300  0.744700  0.952600  1
  O  O45  1  0.107900  0.242800  0.210400  1
  O  O46  1  0.892100  0.742800  0.789600  1
  O  O47  1  0.927400  0.751700  0.311500  1
  O  O48  1  0.072600  0.251700  0.688500  1
  O  O49  1  0.510800  0.408900  0.419700  1
  O  O50  1  0.489200  0.908900  0.580300  1
  O  O51  1  0.522800  0.896700  0.077500  1
  O  O52  1  0.477200  0.396700  0.922500  1
  O  O53  1  0.432100  0.060300  0.202300  1
  O  O54  1  0.567900  0.560300  0.797700  1
  O  O55  1  0.665400  0.894100  0.245500  1
  O  O56  1  0.334600  0.394100  0.754500  1
  O  O57  1  0.359200  0.412500  0.255500  1
  O  O58  1  0.640800  0.912500  0.744500  1
  O  O59  1  0.182100  0.416300  0.492300  1
  O  O60  1  0.817900  0.916300  0.507700  1
  O  O61  1  0.585200  0.743300  0.458100  1
  O  O62  1  0.414800  0.243300  0.541900  1
  O  O63  1  0.763700  0.064900  0.126800  1
  O  O64  1  0.236300  0.564900  0.873200  1
