# generated using pymatgen
data_Ca3YAl9O18
_symmetry_space_group_name_H-M   'P 1'
_cell_length_a   9.91643900
_cell_length_b   9.91643867
_cell_length_c   23.34268000
_cell_angle_alpha   90.00000000
_cell_angle_beta   90.00000000
_cell_angle_gamma   119.99999776
_symmetry_Int_Tables_number   1
_chemical_formula_structural   Ca3YAl9O18
_chemical_formula_sum   'Ca6 Y2 Al18 O36'
_cell_volume   1987.89221543
_cell_formula_units_Z   2
loop_
 _symmetry_equiv_pos_site_id
 _symmetry_equiv_pos_as_xyz
  1  'x, y, z'
loop_
 _atom_site_type_symbol
 _atom_site_label
 _atom_site_symmetry_multiplicity
 _atom_site_fract_x
 _atom_site_fract_y
 _atom_site_fract_z
 _atom_site_occupancy
  Ca  Ca1  1  0.666600  0.333300  0.369290  1
  Ca  Ca2  1  0.333400  0.666700  0.869290  1
  Ca  Ca3  1  0.333400  0.666700  0.630710  1
  Ca  Ca4  1  0.666600  0.333300  0.130710  1
  Ca  Ca5  1  0.000000  0.000000  0.250000  1
  Ca  Ca6  1  0.000000  0.000000  0.750000  1
  Y  Y7  1  0.000000  0.000000  0.500000  1
  Y  Y8  1  0.000000  0.000000  0.000000  1
  Al  Al9  1  0.165700  0.451700  0.417400  1
  Al  Al10  1  0.286000  0.834300  0.417400  1
  Al  Al11  1  0.548300  0.714000  0.417400  1
  Al  Al12  1  0.834300  0.548300  0.917400  1
  Al  Al13  1  0.714000  0.165700  0.917400  1
  Al  Al14  1  0.451700  0.286000  0.917400  1
  Al  Al15  1  0.834300  0.548300  0.582600  1
  Al  Al16  1  0.714000  0.165700  0.582600  1
  Al  Al17  1  0.451700  0.286000  0.582600  1
  Al  Al18  1  0.165700  0.451700  0.082600  1
  Al  Al19  1  0.286000  0.834300  0.082600  1
  Al  Al20  1  0.548300  0.714000  0.082600  1
  Al  Al21  1  0.354000  0.481000  0.250000  1
  Al  Al22  1  0.127000  0.646000  0.250000  1
  Al  Al23  1  0.519000  0.873000  0.250000  1
  Al  Al24  1  0.646000  0.519000  0.750000  1
  Al  Al25  1  0.873000  0.354000  0.750000  1
  Al  Al26  1  0.481000  0.127000  0.750000  1
  O  O27  1  0.533800  0.691700  0.250000  1
  O  O28  1  0.157900  0.466200  0.250000  1
  O  O29  1  0.308300  0.842100  0.250000  1
  O  O30  1  0.466200  0.308300  0.750000  1
  O  O31  1  0.842100  0.533800  0.750000  1
  O  O32  1  0.691700  0.157900  0.750000  1
  O  O33  1  0.385000  0.493200  0.421600  1
  O  O34  1  0.108200  0.615000  0.421600  1
  O  O35  1  0.506800  0.891800  0.421600  1
  O  O36  1  0.615000  0.506800  0.921600  1
  O  O37  1  0.891800  0.385000  0.921600  1
  O  O38  1  0.493200  0.108200  0.921600  1
  O  O39  1  0.615000  0.506800  0.578400  1
  O  O40  1  0.891800  0.385000  0.578400  1
  O  O41  1  0.493200  0.108200  0.578400  1
  O  O42  1  0.385000  0.493200  0.078400  1
  O  O43  1  0.108200  0.615000  0.078400  1
  O  O44  1  0.506800  0.891800  0.078400  1
  O  O45  1  0.413100  0.323400  0.250000  1
  O  O46  1  0.910300  0.586900  0.250000  1
  O  O47  1  0.676600  0.089700  0.250000  1
  O  O48  1  0.586900  0.676600  0.750000  1
  O  O49  1  0.089700  0.413100  0.750000  1
  O  O50  1  0.323400  0.910300  0.750000  1
  O  O51  1  0.004500  0.243800  0.422700  1
  O  O52  1  0.239300  0.995500  0.422700  1
  O  O53  1  0.756200  0.760700  0.422700  1
  O  O54  1  0.995500  0.756200  0.922700  1
  O  O55  1  0.760700  0.004500  0.922700  1
  O  O56  1  0.243800  0.239300  0.922700  1
  O  O57  1  0.995500  0.756200  0.577300  1
  O  O58  1  0.760700  0.004500  0.577300  1
  O  O59  1  0.243800  0.239300  0.577300  1
  O  O60  1  0.004500  0.243800  0.077300  1
  O  O61  1  0.239300  0.995500  0.077300  1
  O  O62  1  0.756200  0.760700  0.077300  1
