# generated using pymatgen
data_Ca8Y10B12O41
_symmetry_space_group_name_H-M   'P 1'
_cell_length_a   12.80546830
_cell_length_b   13.58997474
_cell_length_c   15.35348400
_cell_angle_alpha   76.12999678
_cell_angle_beta   73.55000193
_cell_angle_gamma   77.99000220
_symmetry_Int_Tables_number   1
_chemical_formula_structural   Ca8Y10B12O41
_chemical_formula_sum   'Ca8 Y10 B12 O41'
_cell_volume   2459.45477543
_cell_formula_units_Z   1
loop_
 _symmetry_equiv_pos_site_id
 _symmetry_equiv_pos_as_xyz
  1  'x, y, z'
loop_
 _atom_site_type_symbol
 _atom_site_label
 _atom_site_symmetry_multiplicity
 _atom_site_fract_x
 _atom_site_fract_y
 _atom_site_fract_z
 _atom_site_occupancy
  Ca  Ca1  1  0.776490  0.948570  0.855850  1
  Ca  Ca2  1  0.223510  0.051430  0.144150  1
  Ca  Ca3  1  0.210730  0.942580  0.557030  1
  Ca  Ca4  1  0.789270  0.057420  0.442970  1
  Ca  Ca5  1  0.803110  0.427630  0.847890  1
  Ca  Ca6  1  0.196890  0.572370  0.152110  1
  Ca  Ca7  1  0.789310  0.570710  0.446320  1
  Ca  Ca8  1  0.210690  0.429290  0.553680  1
  Y  Y9  1  0.583320  0.289180  0.703660  1
  Y  Y10  1  0.416680  0.710820  0.296340  1
  Y  Y11  1  0.104980  0.134760  0.812500  1
  Y  Y12  1  0.895020  0.865240  0.187500  1
  Y  Y13  1  0.452860  0.338970  0.992830  1
  Y  Y14  1  0.547140  0.661030  0.007170  1
  Y  Y15  1  0.579570  0.792000  0.706450  1
  Y  Y16  1  0.420430  0.208000  0.293550  1
  Y  Y17  1  0.128840  0.637410  0.796460  1
  Y  Y18  1  0.871160  0.362590  0.203540  1
  B  B19  1  0.176900  0.349400  0.909800  1
  B  B20  1  0.823100  0.650600  0.090200  1
  B  B21  1  0.432500  0.075100  0.664900  1
  B  B22  1  0.567500  0.924900  0.335100  1
  B  B23  1  0.439400  0.576000  0.662600  1
  B  B24  1  0.560600  0.424000  0.337400  1
  B  B25  1  0.902300  0.717300  0.655000  1
  B  B26  1  0.097700  0.282700  0.345000  1
  B  B27  1  0.120200  0.842400  0.939700  1
  B  B28  1  0.879800  0.157600  0.060300  1
  B  B29  1  0.904300  0.215700  0.645800  1
  B  B30  1  0.095700  0.784300  0.354200  1
  O  O31  1  0.775100  0.316200  0.628500  1
  O  O32  1  0.224900  0.683800  0.371500  1
  O  O33  1  0.105500  0.456800  0.832300  1
  O  O34  1  0.894500  0.543200  0.167700  1
  O  O35  1  0.465500  0.938500  0.640700  1
  O  O36  1  0.534500  0.061500  0.359300  1
  O  O37  1  0.118600  0.947000  0.832200  1
  O  O38  1  0.881400  0.053000  0.167800  1
  O  O39  1  0.173300  0.209400  0.912400  1
  O  O40  1  0.826700  0.790600  0.087600  1
  O  O41  1  0.287500  0.145500  0.678100  1
  O  O42  1  0.712500  0.854500  0.321900  1
  O  O43  1  0.259900  0.382800  0.981600  1
  O  O44  1  0.740100  0.617200  0.018400  1
  O  O45  1  0.923200  0.086800  0.619500  1
  O  O46  1  0.076800  0.913200  0.380500  1
  O  O47  1  0.462700  0.438100  0.646900  1
  O  O48  1  0.537300  0.561900  0.353100  1
  O  O49  1  0.141000  0.703100  0.924100  1
  O  O50  1  0.859000  0.296900  0.075900  1
  O  O51  1  0.773200  0.815000  0.634700  1
  O  O52  1  0.226800  0.185000  0.365300  1
  O  O53  1  0.559400  0.635500  0.664800  1
  O  O54  1  0.440600  0.364500  0.335200  1
  O  O55  1  0.554000  0.135200  0.665700  1
  O  O56  1  0.446000  0.864800  0.334300  1
  O  O57  1  0.294900  0.652700  0.669900  1
  O  O58  1  0.705100  0.347300  0.330100  1
  O  O59  1  0.500000  0.500000  0.000000  1
  O  O60  1  0.936900  0.593100  0.615700  1
  O  O61  1  0.063100  0.406900  0.384300  1
  O  O62  1  0.003500  0.254200  0.699500  1
  O  O63  1  0.996500  0.745800  0.300500  1
  O  O64  1  0.098100  0.865000  0.061500  1
  O  O65  1  0.901900  0.135000  0.938500  1
  O  O66  1  0.439600  0.216000  0.134000  1
  O  O67  1  0.560400  0.784000  0.866000  1
  O  O68  1  0.573700  0.267800  0.865300  1
  O  O69  1  0.426300  0.732200  0.134700  1
  O  O70  1  0.985200  0.750100  0.729200  1
  O  O71  1  0.014800  0.249900  0.270800  1
