# generated using pymatgen
data_CaY2(P2O7)2
_symmetry_space_group_name_H-M   'P 1'
_cell_length_a   8.23748699
_cell_length_b   6.45472000
_cell_length_c   19.54418600
_cell_angle_alpha   90.00000000
_cell_angle_beta   91.98999785
_cell_angle_gamma   90.00000000
_symmetry_Int_Tables_number   1
_chemical_formula_structural   CaY2(P2O7)2
_chemical_formula_sum   'Ca2 Y4 P8 O28'
_cell_volume   1038.55078068
_cell_formula_units_Z   2
loop_
 _symmetry_equiv_pos_site_id
 _symmetry_equiv_pos_as_xyz
  1  'x, y, z'
loop_
 _atom_site_type_symbol
 _atom_site_label
 _atom_site_symmetry_multiplicity
 _atom_site_fract_x
 _atom_site_fract_y
 _atom_site_fract_z
 _atom_site_occupancy
  Ca  Ca1  1  0.500000  0.500000  0.500000  1
  Ca  Ca2  1  0.000000  0.000000  0.000000  1
  Y  Y3  1  0.165200  0.743000  0.380500  1
  Y  Y4  1  0.665200  0.757000  0.880500  1
  Y  Y5  1  0.834800  0.257000  0.619500  1
  Y  Y6  1  0.334800  0.243000  0.119500  1
  P  P7  1  0.551500  0.754100  0.668600  1
  P  P8  1  0.051500  0.745900  0.168600  1
  P  P9  1  0.448500  0.245900  0.331400  1
  P  P10  1  0.948500  0.254100  0.831400  1
  P  P11  1  0.143500  0.778100  0.594700  1
  P  P12  1  0.643500  0.721900  0.094700  1
  P  P13  1  0.856500  0.221900  0.405300  1
  P  P14  1  0.356500  0.278100  0.905300  1
  O  O15  1  0.581400  0.496400  0.619100  1
  O  O16  1  0.081400  0.003600  0.119100  1
  O  O17  1  0.418600  0.503600  0.380900  1
  O  O18  1  0.918600  0.996400  0.880900  1
  O  O19  1  0.064300  0.051900  0.587600  1
  O  O20  1  0.564300  0.448100  0.087600  1
  O  O21  1  0.935700  0.948100  0.412400  1
  O  O22  1  0.435700  0.551900  0.912400  1
  O  O23  1  0.310500  0.781500  0.670800  1
  O  O24  1  0.810500  0.718500  0.170800  1
  O  O25  1  0.689500  0.218500  0.329200  1
  O  O26  1  0.189500  0.281500  0.829200  1
  O  O27  1  0.256000  0.702400  0.513000  1
  O  O28  1  0.756000  0.797600  0.013000  1
  O  O29  1  0.744000  0.297600  0.487000  1
  O  O30  1  0.244000  0.202400  0.987000  1
  O  O31  1  0.988200  0.582800  0.617100  1
  O  O32  1  0.488200  0.917200  0.117100  1
  O  O33  1  0.011800  0.417200  0.382900  1
  O  O34  1  0.511800  0.082800  0.882900  1
  O  O35  1  0.628700  0.728100  0.758700  1
  O  O36  1  0.128700  0.771900  0.258700  1
  O  O37  1  0.371300  0.271900  0.241300  1
  O  O38  1  0.871300  0.228100  0.741300  1
  O  O39  1  0.632400  0.975100  0.618000  1
  O  O40  1  0.132400  0.524900  0.118000  1
  O  O41  1  0.367600  0.024900  0.382000  1
  O  O42  1  0.867600  0.475100  0.882000  1
