# generated using pymatgen
data_Na3PS4
_symmetry_space_group_name_H-M   'P 1'
_cell_length_a   13.16042500
_cell_length_b   13.16042500
_cell_length_c   8.27123100
_cell_angle_alpha   90.00000000
_cell_angle_beta   90.00000000
_cell_angle_gamma   90.00000000
_symmetry_Int_Tables_number   1
_chemical_formula_structural   Na3PS4
_chemical_formula_sum   'Na24 P8 S32'
_cell_volume   1432.55062696
_cell_formula_units_Z   8
loop_
 _symmetry_equiv_pos_site_id
 _symmetry_equiv_pos_as_xyz
  1  'x, y, z'
loop_
 _atom_site_type_symbol
 _atom_site_label
 _atom_site_symmetry_multiplicity
 _atom_site_fract_x
 _atom_site_fract_y
 _atom_site_fract_z
 _atom_site_occupancy
  Na  Na1  1  0.741204  0.283374  0.538207  1
  Na  Na2  1  0.000000  0.000000  0.000000  1
  Na  Na3  1  0.500000  0.500000  0.500000  1
  Na  Na4  1  0.000000  0.000000  0.500000  1
  Na  Na5  1  0.500000  0.500000  0.000000  1
  Na  Na6  1  0.000000  0.500000  0.050791  1
  Na  Na7  1  0.500000  0.000000  0.949209  1
  Na  Na8  1  0.500000  0.000000  0.449209  1
  Na  Na9  1  0.257984  0.964534  0.695584  1
  Na  Na10  1  0.035466  0.257984  0.304416  1
  Na  Na11  1  0.964534  0.742016  0.304416  1
  Na  Na12  1  0.742016  0.035466  0.695584  1
  Na  Na13  1  0.757984  0.535466  0.804416  1
  Na  Na14  1  0.242016  0.464534  0.804416  1
  Na  Na15  1  0.464534  0.757984  0.195584  1
  Na  Na16  1  0.535466  0.242016  0.195584  1
  Na  Na17  1  0.216626  0.758796  0.038207  1
  Na  Na18  1  0.241204  0.216626  0.961793  1
  Na  Na19  1  0.758796  0.783374  0.961793  1
  Na  Na20  1  0.783374  0.241204  0.038207  1
  Na  Na21  1  0.716626  0.741204  0.461793  1
  Na  Na22  1  0.283374  0.258796  0.461793  1
  Na  Na23  1  0.258796  0.716626  0.538207  1
  Na  Na24  1  0.000000  0.500000  0.550791  1
  P  P25  1  0.485217  0.236315  0.730157  1
  P  P26  1  0.514783  0.763685  0.730157  1
  P  P27  1  0.236315  0.514783  0.269843  1
  P  P28  1  0.763685  0.485217  0.269843  1
  P  P29  1  0.736315  0.985217  0.230157  1
  P  P30  1  0.014783  0.736315  0.769843  1
  P  P31  1  0.985217  0.263685  0.769843  1
  P  P32  1  0.263685  0.014783  0.230157  1
  S  S33  1  0.375067  0.103463  0.203771  1
  S  S34  1  0.604795  0.191829  0.832227  1
  S  S35  1  0.395205  0.808171  0.832227  1
  S  S36  1  0.191829  0.395205  0.167773  1
  S  S37  1  0.808171  0.604795  0.167773  1
  S  S38  1  0.691829  0.104795  0.332227  1
  S  S39  1  0.895205  0.691829  0.667773  1
  S  S40  1  0.104795  0.308171  0.667773  1
  S  S41  1  0.166178  0.081402  0.358391  1
  S  S42  1  0.918598  0.166178  0.641609  1
  S  S43  1  0.081402  0.833822  0.641609  1
  S  S44  1  0.833822  0.918598  0.358391  1
  S  S45  1  0.666178  0.418598  0.141609  1
  S  S46  1  0.333822  0.581402  0.141609  1
  S  S47  1  0.581402  0.666178  0.858391  1
  S  S48  1  0.418598  0.333822  0.858391  1
  S  S49  1  0.308171  0.895205  0.332227  1
  S  S50  1  0.896537  0.375067  0.796229  1
  S  S51  1  0.103463  0.624933  0.796229  1
  S  S52  1  0.624933  0.896537  0.203771  1
  S  S53  1  0.875067  0.396537  0.296229  1
  S  S54  1  0.124933  0.603463  0.296229  1
  S  S55  1  0.603463  0.875067  0.703771  1
  S  S56  1  0.396537  0.124933  0.703771  1
  S  S57  1  0.209023  0.985073  0.027142  1
  S  S58  1  0.014927  0.209023  0.972858  1
  S  S59  1  0.985073  0.790977  0.972858  1
  S  S60  1  0.514927  0.290977  0.527142  1
  S  S61  1  0.709023  0.514927  0.472858  1
  S  S62  1  0.290977  0.485073  0.472858  1
  S  S63  1  0.485073  0.709023  0.527142  1
  S  S64  1  0.790977  0.014927  0.027142  1
