# generated using pymatgen
data_NaMnPO4
_symmetry_space_group_name_H-M   'P 1'
_cell_length_a   5.41050300
_cell_length_b   6.93096400
_cell_length_c   11.89897000
_cell_angle_alpha   90.00000000
_cell_angle_beta   90.00000000
_cell_angle_gamma   90.00000000
_symmetry_Int_Tables_number   1
_chemical_formula_structural   NaMnPO4
_chemical_formula_sum   'Na4 Mn4 P4 O16'
_cell_volume   446.211393026
_cell_formula_units_Z   4
loop_
 _symmetry_equiv_pos_site_id
 _symmetry_equiv_pos_as_xyz
  1  'x, y, z'
loop_
 _atom_site_type_symbol
 _atom_site_label
 _atom_site_symmetry_multiplicity
 _atom_site_fract_x
 _atom_site_fract_y
 _atom_site_fract_z
 _atom_site_occupancy
  Na  Na1  1  0.000000  0.000000  0.000000  1
  Na  Na2  1  0.500000  0.500000  0.500000  1
  Na  Na3  1  0.500000  0.000000  0.500000  1
  Na  Na4  1  0.000000  0.500000  0.000000  1
  Mn  Mn5  1  0.476320  0.750000  0.781585  1
  Mn  Mn6  1  0.976320  0.250000  0.718415  1
  Mn  Mn7  1  0.023680  0.750000  0.281585  1
  Mn  Mn8  1  0.523680  0.250000  0.218415  1
  P  P9  1  0.580982  0.750000  0.094702  1
  P  P10  1  0.080982  0.250000  0.405298  1
  P  P11  1  0.919018  0.750000  0.594702  1
  P  P12  1  0.419018  0.250000  0.905298  1
  O  O13  1  0.257443  0.750000  0.096655  1
  O  O14  1  0.286160  0.452812  0.834386  1
  O  O15  1  0.286160  0.047188  0.834386  1
  O  O16  1  0.742557  0.250000  0.903345  1
  O  O17  1  0.293857  0.250000  0.042717  1
  O  O18  1  0.757443  0.250000  0.403345  1
  O  O19  1  0.713840  0.952812  0.165614  1
  O  O20  1  0.786160  0.547188  0.665614  1
  O  O21  1  0.213840  0.452812  0.334386  1
  O  O22  1  0.213840  0.047188  0.334386  1
  O  O23  1  0.706143  0.750000  0.957283  1
  O  O24  1  0.793857  0.750000  0.457283  1
  O  O25  1  0.206143  0.250000  0.542717  1
  O  O26  1  0.242557  0.750000  0.596655  1
  O  O27  1  0.786160  0.952812  0.665614  1
  O  O28  1  0.713840  0.547188  0.165614  1
