# generated using pymatgen
data_SrMg2(PO4)2
_symmetry_space_group_name_H-M   'P 1'
_cell_length_a   10.70872386
_cell_length_b   11.60740931
_cell_length_c   11.60740931
_cell_angle_alpha   89.01068983
_cell_angle_beta   82.19193663
_cell_angle_gamma   82.19193663
_symmetry_Int_Tables_number   1
_chemical_formula_structural   SrMg2(PO4)2
_chemical_formula_sum   'Sr4 Mg8 P8 O32'
_cell_volume   1416.17692471
_cell_formula_units_Z   4
loop_
 _symmetry_equiv_pos_site_id
 _symmetry_equiv_pos_as_xyz
  1  'x, y, z'
loop_
 _atom_site_type_symbol
 _atom_site_label
 _atom_site_symmetry_multiplicity
 _atom_site_fract_x
 _atom_site_fract_y
 _atom_site_fract_z
 _atom_site_occupancy
  Sr  Sr1  1  0.288660  0.434110  0.433270  1
  Sr  Sr2  1  0.788660  0.933270  0.934110  1
  Sr  Sr3  1  0.711340  0.565890  0.566730  1
  Sr  Sr4  1  0.211340  0.066730  0.065890  1
  Mg  Mg5  1  0.974600  0.446200  0.207400  1
  Mg  Mg6  1  0.474600  0.707400  0.946200  1
  Mg  Mg7  1  0.025400  0.553800  0.792600  1
  Mg  Mg8  1  0.525400  0.292600  0.053800  1
  Mg  Mg9  1  0.109800  0.066600  0.704800  1
  Mg  Mg10  1  0.609800  0.204800  0.566600  1
  Mg  Mg11  1  0.890200  0.933400  0.295200  1
  Mg  Mg12  1  0.390200  0.795200  0.433400  1
  P  P13  1  0.477490  0.944250  0.709130  1
  P  P14  1  0.977490  0.209130  0.444250  1
  P  P15  1  0.522510  0.055750  0.290870  1
  P  P16  1  0.022510  0.790870  0.555750  1
  P  P17  1  0.605950  0.570320  0.208220  1
  P  P18  1  0.105950  0.708220  0.070320  1
  P  P19  1  0.394050  0.429680  0.791780  1
  P  P20  1  0.894050  0.291780  0.929680  1
  O  O21  1  0.786500  0.523900  0.259900  1
  O  O22  1  0.286500  0.759900  0.023900  1
  O  O23  1  0.213500  0.476100  0.740100  1
  O  O24  1  0.713500  0.240100  0.976100  1
  O  O25  1  0.110700  0.183000  0.563000  1
  O  O26  1  0.610700  0.063000  0.683000  1
  O  O27  1  0.889300  0.817000  0.437000  1
  O  O28  1  0.389300  0.937000  0.317000  1
  O  O29  1  0.039500  0.354800  0.353000  1
  O  O30  1  0.539500  0.853000  0.854800  1
  O  O31  1  0.960500  0.645200  0.647000  1
  O  O32  1  0.460500  0.147000  0.145200  1
  O  O33  1  0.509500  0.429200  0.176600  1
  O  O34  1  0.009500  0.676600  0.929200  1
  O  O35  1  0.490500  0.570800  0.823400  1
  O  O36  1  0.990500  0.323400  0.070800  1
  O  O37  1  0.290000  0.024000  0.761000  1
  O  O38  1  0.790000  0.261000  0.524000  1
  O  O39  1  0.710000  0.976000  0.239000  1
  O  O40  1  0.210000  0.739000  0.476000  1
  O  O41  1  0.010000  0.926500  0.677500  1
  O  O42  1  0.510000  0.177500  0.426500  1
  O  O43  1  0.990000  0.073500  0.322500  1
  O  O44  1  0.490000  0.822500  0.573500  1
  O  O45  1  0.497900  0.634200  0.368600  1
  O  O46  1  0.997900  0.868600  0.134200  1
  O  O47  1  0.502100  0.365800  0.631400  1
  O  O48  1  0.002100  0.131400  0.865800  1
  O  O49  1  0.606900  0.686500  0.068100  1
  O  O50  1  0.106900  0.568100  0.186500  1
  O  O51  1  0.393100  0.313500  0.931900  1
  O  O52  1  0.893100  0.431900  0.813500  1
