# generated using pymatgen
data_SrY2Si3O10
_symmetry_space_group_name_H-M   'P 1'
_cell_length_a   8.40478661
_cell_length_b   8.60805500
_cell_length_c   21.75612900
_cell_angle_alpha   90.00000000
_cell_angle_beta   90.06000361
_cell_angle_gamma   90.00000000
_symmetry_Int_Tables_number   1
_chemical_formula_structural   SrY2Si3O10
_chemical_formula_sum   'Sr4 Y8 Si12 O40'
_cell_volume   1574.03038534
_cell_formula_units_Z   4
loop_
 _symmetry_equiv_pos_site_id
 _symmetry_equiv_pos_as_xyz
  1  'x, y, z'
loop_
 _atom_site_type_symbol
 _atom_site_label
 _atom_site_symmetry_multiplicity
 _atom_site_fract_x
 _atom_site_fract_y
 _atom_site_fract_z
 _atom_site_occupancy
  Sr  Sr1  1  0.853630  0.449090  0.423020  1
  Sr  Sr2  1  0.353630  0.050910  0.923020  1
  Sr  Sr3  1  0.146370  0.550910  0.576980  1
  Sr  Sr4  1  0.646370  0.949090  0.076980  1
  Y  Y5  1  0.270613  0.820900  0.410456  1
  Y  Y6  1  0.770613  0.679100  0.910456  1
  Y  Y7  1  0.729387  0.179100  0.589544  1
  Y  Y8  1  0.229387  0.320900  0.089544  1
  Y  Y9  1  0.604771  0.228920  0.260356  1
  Y  Y10  1  0.104771  0.271080  0.760356  1
  Y  Y11  1  0.395229  0.771080  0.739644  1
  Y  Y12  1  0.895229  0.728920  0.239644  1
  Si  Si13  1  0.747360  0.932050  0.421200  1
  Si  Si14  1  0.247360  0.567950  0.921200  1
  Si  Si15  1  0.252640  0.067950  0.578800  1
  Si  Si16  1  0.752640  0.432050  0.078800  1
  Si  Si17  1  0.082610  0.230930  0.287310  1
  Si  Si18  1  0.582610  0.269070  0.787310  1
  Si  Si19  1  0.917390  0.769070  0.712690  1
  Si  Si20  1  0.417390  0.730930  0.212690  1
  Si  Si21  1  0.341250  0.323210  0.430360  1
  Si  Si22  1  0.841250  0.176790  0.930360  1
  Si  Si23  1  0.658750  0.676790  0.569640  1
  Si  Si24  1  0.158750  0.823210  0.069640  1
  O  O25  1  0.540100  0.411000  0.389310  1
  O  O26  1  0.040100  0.089000  0.889310  1
  O  O27  1  0.459900  0.589000  0.610690  1
  O  O28  1  0.959900  0.911000  0.110690  1
  O  O29  1  0.912600  0.769600  0.390860  1
  O  O30  1  0.412600  0.730400  0.890860  1
  O  O31  1  0.087400  0.230400  0.609140  1
  O  O32  1  0.587400  0.269600  0.109140  1
  O  O33  1  0.919300  0.061200  0.267730  1
  O  O34  1  0.419300  0.438800  0.767730  1
  O  O35  1  0.080700  0.938800  0.732270  1
  O  O36  1  0.580700  0.561200  0.232270  1
  O  O37  1  0.568400  0.964000  0.357470  1
  O  O38  1  0.068400  0.536000  0.857470  1
  O  O39  1  0.431600  0.036000  0.642530  1
  O  O40  1  0.931600  0.464000  0.142530  1
  O  O41  1  0.187300  0.497700  0.458340  1
  O  O42  1  0.687300  0.002300  0.958340  1
  O  O43  1  0.812700  0.502300  0.541660  1
  O  O44  1  0.312700  0.997700  0.041660  1
  O  O45  1  0.836200  0.133700  0.459610  1
  O  O46  1  0.336200  0.366300  0.959610  1
  O  O47  1  0.163800  0.866300  0.540390  1
  O  O48  1  0.663800  0.633700  0.040390  1
  O  O49  1  0.937700  0.420000  0.308900  1
  O  O50  1  0.437700  0.080000  0.808900  1
  O  O51  1  0.062300  0.580000  0.691100  1
  O  O52  1  0.562300  0.920000  0.191100  1
  O  O53  1  0.257900  0.261000  0.222270  1
  O  O54  1  0.757900  0.239000  0.722270  1
  O  O55  1  0.742100  0.739000  0.777730  1
  O  O56  1  0.242100  0.761000  0.277730  1
  O  O57  1  0.213900  0.174500  0.369440  1
  O  O58  1  0.713900  0.325500  0.869440  1
  O  O59  1  0.786100  0.825500  0.630560  1
  O  O60  1  0.286100  0.674500  0.130560  1
  O  O61  1  0.391000  0.178700  0.506070  1
  O  O62  1  0.891000  0.321300  0.006070  1
  O  O63  1  0.609000  0.821300  0.493930  1
  O  O64  1  0.109000  0.678700  0.993930  1
