# generated using pymatgen
data_SrYAlO4
_symmetry_space_group_name_H-M   'P 1'
_cell_length_a   7.88718300
_cell_length_b   11.37608900
_cell_length_c   11.91907920
_cell_angle_alpha   118.50410770
_cell_angle_beta   90.00000000
_cell_angle_gamma   90.00000000
_symmetry_Int_Tables_number   1
_chemical_formula_structural   SrYAlO4
_chemical_formula_sum   'Sr4 Y4 Al4 O16'
_cell_volume   939.808140125
_cell_formula_units_Z   4
loop_
 _symmetry_equiv_pos_site_id
 _symmetry_equiv_pos_as_xyz
  1  'x, y, z'
loop_
 _atom_site_type_symbol
 _atom_site_label
 _atom_site_symmetry_multiplicity
 _atom_site_fract_x
 _atom_site_fract_y
 _atom_site_fract_z
 _atom_site_occupancy
  Sr  Sr1  1  0.500000  0.049600  0.812800  1
  Sr  Sr2  1  0.500000  0.950400  0.187200  1
  Sr  Sr3  1  0.000000  0.763200  0.812800  1
  Sr  Sr4  1  0.000000  0.236800  0.187200  1
  Y  Y5  1  0.763300  0.714100  0.411600  1
  Y  Y6  1  0.763300  0.285900  0.588400  1
  Y  Y7  1  0.263300  0.697500  0.411600  1
  Y  Y8  1  0.263300  0.302500  0.588400  1
  Al  Al9  1  0.021100  0.153700  0.778400  1
  Al  Al10  1  0.021100  0.846300  0.221600  1
  Al  Al11  1  0.521100  0.624700  0.778400  1
  Al  Al12  1  0.521100  0.375300  0.221600  1
  O  O13  1  0.804700  0.817300  0.276200  1
  O  O14  1  0.804700  0.182700  0.723800  1
  O  O15  1  0.304700  0.458900  0.276200  1
  O  O16  1  0.304700  0.541100  0.723800  1
  O  O17  1  0.510700  0.796300  0.532600  1
  O  O18  1  0.510700  0.203700  0.467400  1
  O  O19  1  0.010700  0.736300  0.532600  1
  O  O20  1  0.010700  0.263700  0.467400  1
  O  O21  1  0.042400  0.072400  0.883600  1
  O  O22  1  0.042400  0.927600  0.116400  1
  O  O23  1  0.542400  0.811200  0.883600  1
  O  O24  1  0.542400  0.188800  0.116400  1
  O  O25  1  0.224100  0.209400  0.731400  1
  O  O26  1  0.224100  0.790600  0.268600  1
  O  O27  1  0.724100  0.522000  0.731400  1
  O  O28  1  0.724100  0.478000  0.268600  1
