# generated using pymatgen
data_B2S3
_symmetry_space_group_name_H-M   'P 1'
_cell_length_a   5.80231800
_cell_length_b   5.80231868
_cell_length_c   11.61797100
_cell_angle_alpha   90.00000000
_cell_angle_beta   90.00000000
_cell_angle_gamma   120.00000751
_symmetry_Int_Tables_number   1
_chemical_formula_structural   B2S3
_chemical_formula_sum   'B6 S9'
_cell_volume   338.738056838
_cell_formula_units_Z   3
loop_
 _symmetry_equiv_pos_site_id
 _symmetry_equiv_pos_as_xyz
  1  'x, y, z'
loop_
 _atom_site_type_symbol
 _atom_site_label
 _atom_site_symmetry_multiplicity
 _atom_site_fract_x
 _atom_site_fract_y
 _atom_site_fract_z
 _atom_site_occupancy
  B  B1  1  0.402757  0.218442  0.224093  1
  B  B2  1  0.781558  0.184315  0.557426  1
  B  B3  1  0.815685  0.597243  0.890759  1
  B  B4  1  0.184315  0.781558  0.442574  1
  B  B5  1  0.218442  0.402757  0.775907  1
  B  B6  1  0.597243  0.815685  0.109241  1
  S  S7  1  0.466179  0.875958  0.537574  1
  S  S8  1  0.409779  0.533821  0.204240  1
  S  S9  1  0.124042  0.590221  0.870907  1
  S  S10  1  0.178640  0.000000  0.333333  1
  S  S11  1  0.000000  0.178640  0.666667  1
  S  S12  1  0.821360  0.821360  0.000000  1
  S  S13  1  0.875958  0.466179  0.462426  1
  S  S14  1  0.533821  0.409779  0.795760  1
  S  S15  1  0.590221  0.124042  0.129093  1
