# generated using pymatgen
data_Ba2Mg(BO3)2
_symmetry_space_group_name_H-M   'P 1'
_cell_length_a   9.19971200
_cell_length_b   12.94587300
_cell_length_c   15.92606200
_cell_angle_alpha   90.00000000
_cell_angle_beta   90.00000000
_cell_angle_gamma   90.00000000
_symmetry_Int_Tables_number   1
_chemical_formula_structural   Ba2Mg(BO3)2
_chemical_formula_sum   'Ba16 Mg8 B16 O48'
_cell_volume   1896.76696068
_cell_formula_units_Z   8
loop_
 _symmetry_equiv_pos_site_id
 _symmetry_equiv_pos_as_xyz
  1  'x, y, z'
loop_
 _atom_site_type_symbol
 _atom_site_label
 _atom_site_symmetry_multiplicity
 _atom_site_fract_x
 _atom_site_fract_y
 _atom_site_fract_z
 _atom_site_occupancy
  Ba  Ba1  1  0.879310  0.250000  0.548210  1
  Ba  Ba2  1  0.379310  0.250000  0.951790  1
  Ba  Ba3  1  0.120690  0.750000  0.451790  1
  Ba  Ba4  1  0.620690  0.750000  0.048210  1
  Ba  Ba5  1  0.500000  0.000000  0.500000  1
  Ba  Ba6  1  0.000000  0.500000  0.000000  1
  Ba  Ba7  1  0.500000  0.500000  0.500000  1
  Ba  Ba8  1  0.000000  0.000000  0.000000  1
  Ba  Ba9  1  0.660130  0.019930  0.782830  1
  Ba  Ba10  1  0.160130  0.480070  0.717170  1
  Ba  Ba11  1  0.339870  0.519930  0.217170  1
  Ba  Ba12  1  0.839870  0.980070  0.282830  1
  Ba  Ba13  1  0.339870  0.980070  0.217170  1
  Ba  Ba14  1  0.839870  0.519930  0.282830  1
  Ba  Ba15  1  0.660130  0.480070  0.782830  1
  Ba  Ba16  1  0.160130  0.019930  0.717170  1
  Mg  Mg17  1  0.807660  0.250000  0.927210  1
  Mg  Mg18  1  0.307660  0.250000  0.572790  1
  Mg  Mg19  1  0.192340  0.750000  0.072790  1
  Mg  Mg20  1  0.692340  0.750000  0.427210  1
  Mg  Mg21  1  0.538740  0.250000  0.199930  1
  Mg  Mg22  1  0.038740  0.250000  0.300070  1
  Mg  Mg23  1  0.461260  0.750000  0.800070  1
  Mg  Mg24  1  0.961260  0.750000  0.699930  1
  B  B25  1  0.633700  0.428100  0.063500  1
  B  B26  1  0.133700  0.071900  0.436500  1
  B  B27  1  0.366300  0.928100  0.936500  1
  B  B28  1  0.866300  0.571900  0.563500  1
  B  B29  1  0.366300  0.571900  0.936500  1
  B  B30  1  0.866300  0.928100  0.563500  1
  B  B31  1  0.633700  0.071900  0.063500  1
  B  B32  1  0.133700  0.428100  0.436500  1
  B  B33  1  0.563400  0.250000  0.371000  1
  B  B34  1  0.063400  0.250000  0.129000  1
  B  B35  1  0.436600  0.750000  0.629000  1
  B  B36  1  0.936600  0.750000  0.871000  1
  B  B37  1  0.989600  0.250000  0.792200  1
  B  B38  1  0.489600  0.250000  0.707800  1
  B  B39  1  0.010400  0.750000  0.207800  1
  B  B40  1  0.510400  0.750000  0.292200  1
  O  O41  1  0.567600  0.250000  0.466400  1
  O  O42  1  0.067600  0.250000  0.033600  1
  O  O43  1  0.432400  0.750000  0.533600  1
  O  O44  1  0.932400  0.750000  0.966400  1
  O  O45  1  0.576200  0.250000  0.790700  1
  O  O46  1  0.076200  0.250000  0.709300  1
  O  O47  1  0.423800  0.750000  0.209300  1
  O  O48  1  0.923800  0.750000  0.290700  1
  O  O49  1  0.560300  0.147200  0.313600  1
  O  O50  1  0.060300  0.352800  0.186400  1
  O  O51  1  0.439700  0.647200  0.686400  1
  O  O52  1  0.939700  0.852800  0.813600  1
  O  O53  1  0.439700  0.852800  0.686400  1
  O  O54  1  0.939700  0.647200  0.813600  1
  O  O55  1  0.560300  0.352800  0.313600  1
  O  O56  1  0.060300  0.147200  0.186400  1
  O  O57  1  0.938600  0.146100  0.838500  1
  O  O58  1  0.438600  0.353900  0.661500  1
  O  O59  1  0.061400  0.646100  0.161500  1
  O  O60  1  0.561400  0.853900  0.338500  1
  O  O61  1  0.061400  0.853900  0.161500  1
  O  O62  1  0.561400  0.646100  0.338500  1
  O  O63  1  0.938600  0.353900  0.838500  1
  O  O64  1  0.438600  0.146100  0.661500  1
  O  O65  1  0.998100  0.130400  0.394500  1
  O  O66  1  0.498100  0.369600  0.105500  1
  O  O67  1  0.001900  0.630400  0.605500  1
  O  O68  1  0.501900  0.869600  0.894500  1
  O  O69  1  0.001900  0.869600  0.605500  1
  O  O70  1  0.501900  0.630400  0.894500  1
  O  O71  1  0.998100  0.369600  0.394500  1
  O  O72  1  0.498100  0.130400  0.105500  1
  O  O73  1  0.693200  0.112500  0.976500  1
  O  O74  1  0.193200  0.387500  0.523500  1
  O  O75  1  0.306800  0.612500  0.023500  1
  O  O76  1  0.806800  0.887500  0.476500  1
  O  O77  1  0.306800  0.887500  0.023500  1
  O  O78  1  0.806800  0.612500  0.476500  1
  O  O79  1  0.693200  0.387500  0.976500  1
  O  O80  1  0.193200  0.112500  0.523500  1
  O  O81  1  0.799300  0.474000  0.606400  1
  O  O82  1  0.299300  0.026000  0.893600  1
  O  O83  1  0.200700  0.974000  0.393600  1
  O  O84  1  0.700700  0.526000  0.106400  1
  O  O85  1  0.200700  0.526000  0.393600  1
  O  O86  1  0.700700  0.974000  0.106400  1
  O  O87  1  0.799300  0.026000  0.606400  1
  O  O88  1  0.299300  0.474000  0.893600  1
