# generated using pymatgen
data_Ba4Li2B4O11
_symmetry_space_group_name_H-M   'P 1'
_cell_length_a   6.07191100
_cell_length_b   9.42670551
_cell_length_c   17.95847600
_cell_angle_alpha   91.10765587
_cell_angle_beta   90.00000000
_cell_angle_gamma   108.78749444
_symmetry_Int_Tables_number   1
_chemical_formula_structural   Ba4Li2B4O11
_chemical_formula_sum   'Ba8 Li4 B8 O22'
_cell_volume   972.939013576
_cell_formula_units_Z   2
loop_
 _symmetry_equiv_pos_site_id
 _symmetry_equiv_pos_as_xyz
  1  'x, y, z'
loop_
 _atom_site_type_symbol
 _atom_site_label
 _atom_site_symmetry_multiplicity
 _atom_site_fract_x
 _atom_site_fract_y
 _atom_site_fract_z
 _atom_site_occupancy
  Ba  Ba1  1  0.461438  0.882256  0.129422  1
  Ba  Ba2  1  0.579182  0.117744  0.370578  1
  Ba  Ba3  1  0.538562  0.117744  0.870578  1
  Ba  Ba4  1  0.420818  0.882256  0.629422  1
  Ba  Ba5  1  0.737890  0.440840  0.129340  1
  Ba  Ba6  1  0.297050  0.559160  0.370660  1
  Ba  Ba7  1  0.262110  0.559160  0.870660  1
  Ba  Ba8  1  0.702950  0.440840  0.629340  1
  Li  Li9  1  0.293640  0.538480  0.075200  1
  Li  Li10  1  0.755160  0.461520  0.424800  1
  Li  Li11  1  0.706360  0.461520  0.924800  1
  Li  Li12  1  0.244840  0.538480  0.575200  1
  B  B13  1  0.860400  0.809400  0.974900  1
  B  B14  1  0.051000  0.190600  0.525100  1
  B  B15  1  0.139600  0.190600  0.025100  1
  B  B16  1  0.949000  0.809400  0.474900  1
  B  B17  1  0.070400  0.186000  0.214300  1
  B  B18  1  0.884400  0.814000  0.285700  1
  B  B19  1  0.929600  0.814000  0.785700  1
  B  B20  1  0.115600  0.186000  0.714300  1
  O  O21  1  0.640270  0.652740  0.242270  1
  O  O22  1  0.987530  0.347260  0.257730  1
  O  O23  1  0.359730  0.347260  0.757730  1
  O  O24  1  0.012470  0.652740  0.742270  1
  O  O25  1  0.955130  0.175660  0.106280  1
  O  O26  1  0.779470  0.824340  0.393720  1
  O  O27  1  0.044870  0.824340  0.893720  1
  O  O28  1  0.220530  0.175660  0.606280  1
  O  O29  1  0.946300  0.770800  0.065220  1
  O  O30  1  0.175500  0.229200  0.434780  1
  O  O31  1  0.053700  0.229200  0.934780  1
  O  O32  1  0.824500  0.770800  0.565220  1
  O  O33  1  0.586330  0.842060  0.964880  1
  O  O34  1  0.744270  0.157940  0.535120  1
  O  O35  1  0.413670  0.157940  0.035120  1
  O  O36  1  0.255730  0.842060  0.464880  1
  O  O37  1  0.847600  0.000000  0.250000  1
  O  O38  1  0.152400  0.000000  0.750000  1
  O  O39  1  0.378380  0.197560  0.224880  1
  O  O40  1  0.180820  0.802440  0.275120  1
  O  O41  1  0.621620  0.802440  0.775120  1
  O  O42  1  0.819180  0.197560  0.724880  1
