# generated using pymatgen
data_BaMg2(PO4)2
_symmetry_space_group_name_H-M   'P 1'
_cell_length_a   14.19258200
_cell_length_b   14.19258200
_cell_length_c   9.29368000
_cell_angle_alpha   90.00000000
_cell_angle_beta   90.00000000
_cell_angle_gamma   90.00000000
_symmetry_Int_Tables_number   1
_chemical_formula_structural   BaMg2(PO4)2
_chemical_formula_sum   'Ba2 Mg4 P4 O16'
_cell_volume   1872.02023588
_cell_formula_units_Z   2
loop_
 _symmetry_equiv_pos_site_id
 _symmetry_equiv_pos_as_xyz
  1  'x, y, z'
loop_
 _atom_site_type_symbol
 _atom_site_label
 _atom_site_symmetry_multiplicity
 _atom_site_fract_x
 _atom_site_fract_y
 _atom_site_fract_z
 _atom_site_occupancy
  Ba  Ba1  1  0.500000  0.500000  0.100000  1
  Ba  Ba2  1  0.000000  0.000000  0.100000  1
  Mg  Mg3  1  0.171080  0.328900  0.625400  1
  Mg  Mg4  1  0.828920  0.671100  0.625400  1
  Mg  Mg5  1  0.328920  0.828900  0.625400  1
  Mg  Mg6  1  0.671080  0.171100  0.625400  1
  P  P7  1  0.372000  0.128000  0.115300  1
  P  P8  1  0.628000  0.872000  0.115300  1
  P  P9  1  0.128000  0.628000  0.115300  1
  P  P10  1  0.872000  0.372000  0.115300  1
  O  O11  1  0.075000  0.785100  0.992900  1
  O  O12  1  0.925000  0.214900  0.992900  1
  O  O13  1  0.425000  0.285100  0.992900  1
  O  O14  1  0.575000  0.714900  0.992900  1
  O  O15  1  0.785100  0.925000  0.992900  1
  O  O16  1  0.214900  0.075000  0.992900  1
  O  O17  1  0.285100  0.575000  0.992900  1
  O  O18  1  0.714900  0.425000  0.992900  1
  O  O19  1  0.000000  0.000000  0.395900  1
  O  O20  1  0.500000  0.500000  0.395900  1
  O  O21  1  0.372300  0.127700  0.390400  1
  O  O22  1  0.627700  0.872300  0.390400  1
  O  O23  1  0.127700  0.627700  0.390400  1
  O  O24  1  0.872300  0.372300  0.390400  1
  O  O25  1  0.500000  0.000000  0.006000  1
  O  O26  1  0.000000  0.500000  0.006000  1
