# generated using pymatgen
data_BaMgSiO4
_symmetry_space_group_name_H-M   'P 1'
_cell_length_a   12.89120000
_cell_length_b   12.89120027
_cell_length_c   12.12177400
_cell_angle_alpha   90.00000000
_cell_angle_beta   90.00000000
_cell_angle_gamma   119.99999930
_symmetry_Int_Tables_number   1
_chemical_formula_structural   BaMgSiO4
_chemical_formula_sum   'Ba6 Mg6 Si6 O24'
_cell_volume   1744.55039408
_cell_formula_units_Z   6
loop_
 _symmetry_equiv_pos_site_id
 _symmetry_equiv_pos_as_xyz
  1  'x, y, z'
loop_
 _atom_site_type_symbol
 _atom_site_label
 _atom_site_symmetry_multiplicity
 _atom_site_fract_x
 _atom_site_fract_y
 _atom_site_fract_z
 _atom_site_occupancy
  Ba  Ba1  1  0.969200  0.315100  0.778000  1
  Ba  Ba2  1  0.345900  0.030800  0.778000  1
  Ba  Ba3  1  0.684900  0.654100  0.778000  1
  Ba  Ba4  1  0.030800  0.684900  0.278000  1
  Ba  Ba5  1  0.654100  0.969200  0.278000  1
  Ba  Ba6  1  0.315100  0.345900  0.278000  1
  Mg  Mg7  1  0.666660  0.333330  0.057000  1
  Mg  Mg8  1  0.333340  0.666670  0.557000  1
  Mg  Mg9  1  0.666660  0.333330  0.506000  1
  Mg  Mg10  1  0.333340  0.666670  0.006000  1
  Mg  Mg11  1  0.000000  0.000000  0.500000  1
  Mg  Mg12  1  0.000000  0.000000  0.000000  1
  Si  Si13  1  0.644900  0.967000  0.866900  1
  Si  Si14  1  0.322100  0.355100  0.866900  1
  Si  Si15  1  0.033000  0.677900  0.866900  1
  Si  Si16  1  0.355100  0.033000  0.366900  1
  Si  Si17  1  0.677900  0.644900  0.366900  1
  Si  Si18  1  0.967000  0.322100  0.366900  1
  O  O19  1  0.886000  0.267500  0.557800  1
  O  O20  1  0.381500  0.114000  0.557800  1
  O  O21  1  0.732500  0.618500  0.557800  1
  O  O22  1  0.114000  0.732500  0.057800  1
  O  O23  1  0.618500  0.886000  0.057800  1
  O  O24  1  0.267500  0.381500  0.057800  1
  O  O25  1  0.755500  0.186800  0.888500  1
  O  O26  1  0.431300  0.244500  0.888500  1
  O  O27  1  0.813200  0.568700  0.888500  1
  O  O28  1  0.244500  0.813200  0.388500  1
  O  O29  1  0.568700  0.755500  0.388500  1
  O  O30  1  0.186800  0.431300  0.388500  1
  O  O31  1  0.127100  0.225300  0.779200  1
  O  O32  1  0.098200  0.872900  0.779200  1
  O  O33  1  0.774700  0.901800  0.779200  1
  O  O34  1  0.872900  0.774700  0.279200  1
  O  O35  1  0.901800  0.127100  0.279200  1
  O  O36  1  0.225300  0.098200  0.279200  1
  O  O37  1  0.439000  0.518800  0.735400  1
  O  O38  1  0.079800  0.561000  0.735400  1
  O  O39  1  0.481200  0.920200  0.735400  1
  O  O40  1  0.561000  0.481200  0.235400  1
  O  O41  1  0.920200  0.439000  0.235400  1
  O  O42  1  0.518800  0.079800  0.235400  1
