# generated using pymatgen
data_Ge3N4
_symmetry_space_group_name_H-M   'P 1'
_cell_length_a   8.01892600
_cell_length_b   8.01892632
_cell_length_c   3.06202300
_cell_angle_alpha   90.00000000
_cell_angle_beta   90.00000000
_cell_angle_gamma   119.99999867
_symmetry_Int_Tables_number   1
_chemical_formula_structural   Ge3N4
_chemical_formula_sum   'Ge6 N8'
_cell_volume   170.51850448
_cell_formula_units_Z   2
loop_
 _symmetry_equiv_pos_site_id
 _symmetry_equiv_pos_as_xyz
  1  'x, y, z'
loop_
 _atom_site_type_symbol
 _atom_site_label
 _atom_site_symmetry_multiplicity
 _atom_site_fract_x
 _atom_site_fract_y
 _atom_site_fract_z
 _atom_site_occupancy
  Ge  Ge1  1  0.174863  0.768756  0.250000  1
  Ge  Ge2  1  0.768756  0.593893  0.750000  1
  Ge  Ge3  1  0.406107  0.174863  0.750000  1
  Ge  Ge4  1  0.593893  0.825137  0.250000  1
  Ge  Ge5  1  0.231244  0.406107  0.250000  1
  Ge  Ge6  1  0.825137  0.231244  0.750000  1
  N  N7  1  0.333333  0.666667  0.250000  1
  N  N8  1  0.666667  0.333333  0.750000  1
  N  N9  1  0.329943  0.030679  0.250000  1
  N  N10  1  0.030679  0.700735  0.750000  1
  N  N11  1  0.299265  0.329943  0.750000  1
  N  N12  1  0.700735  0.670057  0.250000  1
  N  N13  1  0.670057  0.969321  0.750000  1
  N  N14  1  0.969321  0.299265  0.250000  1
