# generated using pymatgen
data_Si3N4
_symmetry_space_group_name_H-M   'P 1'
_cell_length_a   5.03009607
_cell_length_b   5.03009566
_cell_length_c   5.03009600
_cell_angle_alpha   59.99999779
_cell_angle_beta   60.00000046
_cell_angle_gamma   60.00000523
_symmetry_Int_Tables_number   1
_chemical_formula_structural   Si3N4
_chemical_formula_sum   'Si6 N8'
_cell_volume   89.9940530775
_cell_formula_units_Z   2
loop_
 _symmetry_equiv_pos_site_id
 _symmetry_equiv_pos_as_xyz
  1  'x, y, z'
loop_
 _atom_site_type_symbol
 _atom_site_label
 _atom_site_symmetry_multiplicity
 _atom_site_fract_x
 _atom_site_fract_y
 _atom_site_fract_z
 _atom_site_occupancy
  Si  Si1  1  0.625000  0.625000  0.625000  1
  Si  Si2  1  0.625000  0.625000  0.125000  1
  Si  Si3  1  0.125000  0.625000  0.625000  1
  Si  Si4  1  0.625000  0.125000  0.625000  1
  Si  Si5  1  0.000000  0.000000  0.000000  1
  Si  Si6  1  0.250000  0.250000  0.250000  1
  N  N7  1  0.865935  0.402195  0.865935  1
  N  N8  1  0.847805  0.384065  0.384065  1
  N  N9  1  0.384065  0.384065  0.384065  1
  N  N10  1  0.384065  0.384065  0.847805  1
  N  N11  1  0.865935  0.865935  0.865935  1
  N  N12  1  0.865935  0.865935  0.402195  1
  N  N13  1  0.384065  0.847805  0.384065  1
  N  N14  1  0.402195  0.865935  0.865935  1
