# generated using pymatgen
data_Sr2Mg(PO4)2
_symmetry_space_group_name_H-M   'P 1'
_cell_length_a   6.59446012
_cell_length_b   8.74083235
_cell_length_c   6.86631700
_cell_angle_alpha   110.99999882
_cell_angle_beta   112.49999403
_cell_angle_gamma   86.00000800
_symmetry_Int_Tables_number   1
_chemical_formula_structural   Sr2Mg(PO4)2
_chemical_formula_sum   'Sr2 Mg1 P2 O8'
_cell_volume   340.324745543
_cell_formula_units_Z   1
loop_
 _symmetry_equiv_pos_site_id
 _symmetry_equiv_pos_as_xyz
  1  'x, y, z'
loop_
 _atom_site_type_symbol
 _atom_site_label
 _atom_site_symmetry_multiplicity
 _atom_site_fract_x
 _atom_site_fract_y
 _atom_site_fract_z
 _atom_site_occupancy
  Sr  Sr1  1  0.766800  0.814500  0.258000  1
  Sr  Sr2  1  0.233200  0.185500  0.742000  1
  Mg  Mg3  1  0.500000  0.500000  0.500000  1
  P  P4  1  0.139300  0.721500  0.864000  1
  P  P5  1  0.860700  0.278500  0.136000  1
  O  O6  1  0.350000  0.837000  0.245000  1
  O  O7  1  0.650000  0.163000  0.755000  1
  O  O8  1  0.252000  0.473000  0.717000  1
  O  O9  1  0.748000  0.527000  0.283000  1
  O  O10  1  0.108000  0.884000  0.661000  1
  O  O11  1  0.892000  0.116000  0.339000  1
  O  O12  1  0.820000  0.658000  0.877000  1
  O  O13  1  0.180000  0.342000  0.123000  1
