# generated using pymatgen
data_SrLiBO3
_symmetry_space_group_name_H-M   'P 1'
_cell_length_a   8.65900755
_cell_length_b   8.48384600
_cell_length_c   9.10393300
_cell_angle_alpha   90.00000000
_cell_angle_beta   127.42100120
_cell_angle_gamma   90.00000000
_symmetry_Int_Tables_number   1
_chemical_formula_structural   SrLiBO3
_chemical_formula_sum   'Sr4 Li4 B4 O12'
_cell_volume   531.147843672
_cell_formula_units_Z   4
loop_
 _symmetry_equiv_pos_site_id
 _symmetry_equiv_pos_as_xyz
  1  'x, y, z'
loop_
 _atom_site_type_symbol
 _atom_site_label
 _atom_site_symmetry_multiplicity
 _atom_site_fract_x
 _atom_site_fract_y
 _atom_site_fract_z
 _atom_site_occupancy
  Sr  Sr1  1  0.828400  0.144700  0.668500  1
  Sr  Sr2  1  0.171600  0.644700  0.831500  1
  Sr  Sr3  1  0.171600  0.855300  0.331500  1
  Sr  Sr4  1  0.828400  0.355300  0.168500  1
  Li  Li5  1  0.400400  0.432400  0.601900  1
  Li  Li6  1  0.599600  0.932400  0.898100  1
  Li  Li7  1  0.599600  0.567600  0.398100  1
  Li  Li8  1  0.400400  0.067600  0.101900  1
  B  B9  1  0.293900  0.167400  0.713200  1
  B  B10  1  0.706100  0.667400  0.786800  1
  B  B11  1  0.706100  0.832600  0.286800  1
  B  B12  1  0.293900  0.332600  0.213200  1
  O  O13  1  0.743600  0.524300  0.709200  1
  O  O14  1  0.256400  0.024300  0.790800  1
  O  O15  1  0.256400  0.475700  0.290800  1
  O  O16  1  0.743600  0.975700  0.209200  1
  O  O17  1  0.159600  0.310100  0.629400  1
  O  O18  1  0.840400  0.810100  0.870600  1
  O  O19  1  0.840400  0.689900  0.370600  1
  O  O20  1  0.159600  0.189900  0.129400  1
  O  O21  1  0.478700  0.167200  0.720700  1
  O  O22  1  0.521300  0.667200  0.779300  1
  O  O23  1  0.521300  0.832800  0.279300  1
  O  O24  1  0.478700  0.332800  0.220700  1
