# generated using pymatgen
data_SrMgP2O7
_symmetry_space_group_name_H-M   'P 1'
_cell_length_a   8.71485827
_cell_length_b   18.72981900
_cell_length_c   14.29736000
_cell_angle_alpha   90.00000000
_cell_angle_beta   99.51000239
_cell_angle_gamma   90.00000000
_symmetry_Int_Tables_number   1
_chemical_formula_structural   SrMgP2O7
_chemical_formula_sum   'Sr8 Mg8 P16 O56'
_cell_volume   2301.65252924
_cell_formula_units_Z   8
loop_
 _symmetry_equiv_pos_site_id
 _symmetry_equiv_pos_as_xyz
  1  'x, y, z'
loop_
 _atom_site_type_symbol
 _atom_site_label
 _atom_site_symmetry_multiplicity
 _atom_site_fract_x
 _atom_site_fract_y
 _atom_site_fract_z
 _atom_site_occupancy
  Sr  Sr1  1  0.655800  0.373120  0.521800  1
  Sr  Sr2  1  0.344200  0.873120  0.978200  1
  Sr  Sr3  1  0.344200  0.626880  0.478200  1
  Sr  Sr4  1  0.655800  0.126880  0.021800  1
  Sr  Sr5  1  0.920900  0.486830  0.257300  1
  Sr  Sr6  1  0.079100  0.986830  0.242700  1
  Sr  Sr7  1  0.079100  0.513170  0.742700  1
  Sr  Sr8  1  0.920900  0.013170  0.757300  1
  Mg  Mg9  1  0.990700  0.246300  0.750700  1
  Mg  Mg10  1  0.009300  0.746300  0.749300  1
  Mg  Mg11  1  0.009300  0.753700  0.249300  1
  Mg  Mg12  1  0.990700  0.253700  0.250700  1
  Mg  Mg13  1  0.348700  0.327700  0.922100  1
  Mg  Mg14  1  0.651300  0.827700  0.577900  1
  Mg  Mg15  1  0.651300  0.672300  0.077900  1
  Mg  Mg16  1  0.348700  0.172300  0.422100  1
  P  P17  1  0.150900  0.137300  0.019800  1
  P  P18  1  0.849100  0.637300  0.480200  1
  P  P19  1  0.849100  0.862700  0.980200  1
  P  P20  1  0.150900  0.362700  0.519800  1
  P  P21  1  0.480700  0.297300  0.199600  1
  P  P22  1  0.519300  0.797300  0.300400  1
  P  P23  1  0.519300  0.702700  0.800400  1
  P  P24  1  0.480700  0.202700  0.699600  1
  P  P25  1  0.409200  0.486500  0.178400  1
  P  P26  1  0.590800  0.986500  0.321600  1
  P  P27  1  0.590800  0.513500  0.821600  1
  P  P28  1  0.409200  0.013500  0.678400  1
  P  P29  1  0.130100  0.638100  0.019000  1
  P  P30  1  0.869900  0.138100  0.481000  1
  P  P31  1  0.869900  0.361900  0.981000  1
  P  P32  1  0.130100  0.861900  0.519000  1
  O  O33  1  0.284000  0.512000  0.285000  1
  O  O34  1  0.716000  0.012000  0.215000  1
  O  O35  1  0.716000  0.488000  0.715000  1
  O  O36  1  0.284000  0.988000  0.785000  1
  O  O37  1  0.033000  0.643000  0.808000  1
  O  O38  1  0.967000  0.143000  0.692000  1
  O  O39  1  0.967000  0.357000  0.192000  1
  O  O40  1  0.033000  0.857000  0.308000  1
  O  O41  1  0.006000  0.152000  0.125000  1
  O  O42  1  0.994000  0.652000  0.375000  1
  O  O43  1  0.994000  0.848000  0.875000  1
  O  O44  1  0.006000  0.348000  0.625000  1
  O  O45  1  0.344000  0.216000  0.041000  1
  O  O46  1  0.656000  0.716000  0.459000  1
  O  O47  1  0.656000  0.784000  0.959000  1
  O  O48  1  0.344000  0.284000  0.541000  1
  O  O49  1  0.961000  0.660000  0.111000  1
  O  O50  1  0.039000  0.160000  0.389000  1
  O  O51  1  0.039000  0.340000  0.889000  1
  O  O52  1  0.961000  0.840000  0.611000  1
  O  O53  1  0.317000  0.709000  0.043000  1
  O  O54  1  0.683000  0.209000  0.457000  1
  O  O55  1  0.683000  0.291000  0.957000  1
  O  O56  1  0.317000  0.791000  0.543000  1
  O  O57  1  0.001000  0.141000  0.884000  1
  O  O58  1  0.999000  0.641000  0.616000  1
  O  O59  1  0.999000  0.859000  0.116000  1
  O  O60  1  0.001000  0.359000  0.384000  1
  O  O61  1  0.574000  0.397000  0.282000  1
  O  O62  1  0.426000  0.897000  0.218000  1
  O  O63  1  0.426000  0.603000  0.718000  1
  O  O64  1  0.574000  0.103000  0.782000  1
  O  O65  1  0.680000  0.231000  0.203000  1
  O  O66  1  0.320000  0.731000  0.297000  1
  O  O67  1  0.320000  0.769000  0.797000  1
  O  O68  1  0.680000  0.269000  0.703000  1
  O  O69  1  0.588000  0.560000  0.171000  1
  O  O70  1  0.412000  0.060000  0.329000  1
  O  O71  1  0.412000  0.440000  0.829000  1
  O  O72  1  0.588000  0.940000  0.671000  1
  O  O73  1  0.390000  0.383000  0.088000  1
  O  O74  1  0.610000  0.883000  0.412000  1
  O  O75  1  0.610000  0.617000  0.912000  1
  O  O76  1  0.390000  0.117000  0.588000  1
  O  O77  1  0.238000  0.035000  0.042000  1
  O  O78  1  0.762000  0.535000  0.458000  1
  O  O79  1  0.762000  0.965000  0.958000  1
  O  O80  1  0.238000  0.465000  0.542000  1
  O  O81  1  0.311000  0.255000  0.279000  1
  O  O82  1  0.689000  0.755000  0.221000  1
  O  O83  1  0.689000  0.745000  0.721000  1
  O  O84  1  0.311000  0.245000  0.779000  1
  O  O85  1  0.222000  0.529000  0.048000  1
  O  O86  1  0.778000  0.029000  0.452000  1
  O  O87  1  0.778000  0.471000  0.952000  1
  O  O88  1  0.222000  0.971000  0.548000  1
