# generated using pymatgen
data_Ba2Li2(SiO3)3
_symmetry_space_group_name_H-M   'P 1'
_cell_length_a   13.49475055
_cell_length_b   9.12891800
_cell_length_c   16.01506800
_cell_angle_alpha   90.00000000
_cell_angle_beta   106.76399948
_cell_angle_gamma   90.00000000
_symmetry_Int_Tables_number   1
_chemical_formula_structural   Ba2Li2(SiO3)3
_chemical_formula_sum   'Ba8 Li8 Si12 O36'
_cell_volume   1889.08783707
_cell_formula_units_Z   4
loop_
 _symmetry_equiv_pos_site_id
 _symmetry_equiv_pos_as_xyz
  1  'x, y, z'
loop_
 _atom_site_type_symbol
 _atom_site_label
 _atom_site_symmetry_multiplicity
 _atom_site_fract_x
 _atom_site_fract_y
 _atom_site_fract_z
 _atom_site_occupancy
  Ba  Ba1  1  0.063000  0.893140  0.647620  1
  Ba  Ba2  1  0.937000  0.393140  0.852380  1
  Ba  Ba3  1  0.937000  0.106860  0.352380  1
  Ba  Ba4  1  0.063000  0.606860  0.147620  1
  Ba  Ba5  1  0.459800  0.373750  0.144070  1
  Ba  Ba6  1  0.540200  0.873750  0.355930  1
  Ba  Ba7  1  0.540200  0.626250  0.855930  1
  Ba  Ba8  1  0.459800  0.126250  0.644070  1
  Li  Li9  1  0.428800  0.909300  0.042200  1
  Li  Li10  1  0.571200  0.409300  0.457800  1
  Li  Li11  1  0.571200  0.090700  0.957800  1
  Li  Li12  1  0.428800  0.590700  0.542200  1
  Li  Li13  1  0.065000  0.927700  0.942400  1
  Li  Li14  1  0.935000  0.427700  0.557600  1
  Li  Li15  1  0.935000  0.072300  0.057600  1
  Li  Li16  1  0.065000  0.572300  0.442400  1
  Si  Si17  1  0.257410  0.182160  0.873230  1
  Si  Si18  1  0.742590  0.682160  0.626770  1
  Si  Si19  1  0.742590  0.817840  0.126770  1
  Si  Si20  1  0.257410  0.317840  0.373230  1
  Si  Si21  1  0.758230  0.531300  0.318190  1
  Si  Si22  1  0.241770  0.031300  0.181810  1
  Si  Si23  1  0.241770  0.468700  0.681810  1
  Si  Si24  1  0.758230  0.968700  0.818190  1
  Si  Si25  1  0.762070  0.385780  0.080640  1
  Si  Si26  1  0.237930  0.885780  0.419360  1
  Si  Si27  1  0.237930  0.614220  0.919360  1
  Si  Si28  1  0.762070  0.114220  0.580640  1
  O  O29  1  0.899100  0.297800  0.060740  1
  O  O30  1  0.100900  0.797800  0.439260  1
  O  O31  1  0.100900  0.702200  0.939260  1
  O  O32  1  0.899100  0.202200  0.560740  1
  O  O33  1  0.240600  0.378400  0.944780  1
  O  O34  1  0.759400  0.878400  0.555220  1
  O  O35  1  0.759400  0.621600  0.055220  1
  O  O36  1  0.240600  0.121600  0.444780  1
  O  O37  1  0.401090  0.074600  0.933240  1
  O  O38  1  0.598910  0.574600  0.566760  1
  O  O39  1  0.598910  0.925400  0.066760  1
  O  O40  1  0.401090  0.425400  0.433240  1
  O  O41  1  0.623900  0.493300  0.356120  1
  O  O42  1  0.376100  0.993300  0.143880  1
  O  O43  1  0.376100  0.506700  0.643880  1
  O  O44  1  0.623900  0.006700  0.856120  1
  O  O45  1  0.101500  0.019100  0.078260  1
  O  O46  1  0.898500  0.519100  0.421740  1
  O  O47  1  0.898500  0.980900  0.921740  1
  O  O48  1  0.101500  0.480900  0.578260  1
  O  O49  1  0.127600  0.049500  0.859680  1
  O  O50  1  0.872400  0.549500  0.640320  1
  O  O51  1  0.872400  0.950500  0.140320  1
  O  O52  1  0.127600  0.450500  0.359680  1
  O  O53  1  0.257900  0.245600  0.243580  1
  O  O54  1  0.742100  0.745600  0.256420  1
  O  O55  1  0.742100  0.754400  0.756420  1
  O  O56  1  0.257900  0.254400  0.743580  1
  O  O57  1  0.764600  0.373700  0.217820  1
  O  O58  1  0.235400  0.873700  0.282180  1
  O  O59  1  0.235400  0.626300  0.782180  1
  O  O60  1  0.764600  0.126300  0.717820  1
  O  O61  1  0.622400  0.301200  0.000170  1
  O  O62  1  0.377600  0.801200  0.499830  1
  O  O63  1  0.377600  0.698800  0.999830  1
  O  O64  1  0.622400  0.198800  0.500170  1
