# generated using pymatgen
data_Ba3Mg3(PO4)4
_symmetry_space_group_name_H-M   'P 1'
_cell_length_a   7.78061991
_cell_length_b   8.82196477
_cell_length_c   12.20062800
_cell_angle_alpha   84.32900066
_cell_angle_beta   88.00799999
_cell_angle_gamma   80.70399823
_symmetry_Int_Tables_number   1
_chemical_formula_structural   Ba3Mg3(PO4)4
_chemical_formula_sum   'Ba6 Mg6 P8 O32'
_cell_volume   822.261526469
_cell_formula_units_Z   2
loop_
 _symmetry_equiv_pos_site_id
 _symmetry_equiv_pos_as_xyz
  1  'x, y, z'
loop_
 _atom_site_type_symbol
 _atom_site_label
 _atom_site_symmetry_multiplicity
 _atom_site_fract_x
 _atom_site_fract_y
 _atom_site_fract_z
 _atom_site_occupancy
  Ba  Ba1  1  0.387490  0.800820  0.747040  1
  Ba  Ba2  1  0.612510  0.199180  0.252960  1
  Ba  Ba3  1  0.792370  0.919780  0.921370  1
  Ba  Ba4  1  0.207630  0.080220  0.078630  1
  Ba  Ba5  1  0.734670  0.423550  0.647320  1
  Ba  Ba6  1  0.265330  0.576450  0.352680  1
  Mg  Mg7  1  0.746820  0.468750  0.997300  1
  Mg  Mg8  1  0.253180  0.531250  0.002700  1
  Mg  Mg9  1  0.766310  0.985190  0.525030  1
  Mg  Mg10  1  0.233690  0.014810  0.474970  1
  Mg  Mg11  1  0.755390  0.720500  0.264250  1
  Mg  Mg12  1  0.244610  0.279500  0.735750  1
  P  P13  1  0.550800  0.749400  0.487230  1
  P  P14  1  0.449200  0.250600  0.512770  1
  P  P15  1  0.994400  0.064800  0.683580  1
  P  P16  1  0.005600  0.935200  0.316420  1
  P  P17  1  0.007500  0.568500  0.818120  1
  P  P18  1  0.992500  0.431500  0.181880  1
  P  P19  1  0.530200  0.279600  0.902860  1
  P  P20  1  0.469800  0.720400  0.097140  1
  O  O21  1  0.342900  0.750100  0.531800  1
  O  O22  1  0.657100  0.249900  0.468200  1
  O  O23  1  0.943800  0.602700  0.095120  1
  O  O24  1  0.056200  0.397300  0.904880  1
  O  O25  1  0.052900  0.897400  0.619230  1
  O  O26  1  0.947100  0.102600  0.380770  1
  O  O27  1  0.106600  0.707900  0.865380  1
  O  O28  1  0.893400  0.292100  0.134620  1
  O  O29  1  0.680000  0.751800  0.598540  1
  O  O30  1  0.320000  0.248200  0.401460  1
  O  O31  1  0.625500  0.592600  0.420140  1
  O  O32  1  0.374500  0.407400  0.579860  1
  O  O33  1  0.946900  0.787100  0.405290  1
  O  O34  1  0.053100  0.212900  0.594710  1
  O  O35  1  0.774300  0.082000  0.701940  1
  O  O36  1  0.225700  0.918000  0.298060  1
  O  O37  1  0.749500  0.260400  0.883530  1
  O  O38  1  0.250500  0.739600  0.116470  1
  O  O39  1  0.558400  0.914700  0.395710  1
  O  O40  1  0.441600  0.085300  0.604290  1
  O  O41  1  0.504600  0.682700  0.961010  1
  O  O42  1  0.495400  0.317300  0.038990  1
  O  O43  1  0.892100  0.942500  0.196770  1
  O  O44  1  0.107900  0.057500  0.803230  1
  O  O45  1  0.075700  0.531900  0.689070  1
  O  O46  1  0.924300  0.468100  0.310930  1
  O  O47  1  0.561900  0.875100  0.124690  1
  O  O48  1  0.438100  0.124900  0.875310  1
  O  O49  1  0.788500  0.626500  0.828760  1
  O  O50  1  0.211500  0.373500  0.171240  1
  O  O51  1  0.575900  0.560000  0.173310  1
  O  O52  1  0.424100  0.440000  0.826690  1
