# generated using pymatgen
data_Ba3Y2SiO8
_symmetry_space_group_name_H-M   'P 1'
_cell_length_a   8.25147100
_cell_length_b   8.25147168
_cell_length_c   21.74214700
_cell_angle_alpha   90.00000000
_cell_angle_beta   90.00000000
_cell_angle_gamma   120.00000129
_symmetry_Int_Tables_number   1
_chemical_formula_structural   Ba3Y2SiO8
_chemical_formula_sum   'Ba6 Y4 Si2 O16'
_cell_volume   1282.0230832
_cell_formula_units_Z   2
loop_
 _symmetry_equiv_pos_site_id
 _symmetry_equiv_pos_as_xyz
  1  'x, y, z'
loop_
 _atom_site_type_symbol
 _atom_site_label
 _atom_site_symmetry_multiplicity
 _atom_site_fract_x
 _atom_site_fract_y
 _atom_site_fract_z
 _atom_site_occupancy
  Ba  Ba1  1  0.000000  0.000000  0.759300  1
  Ba  Ba2  1  0.000000  0.000000  0.259300  1
  Ba  Ba3  1  0.666700  0.333400  0.599500  1
  Ba  Ba4  1  0.333300  0.666600  0.099500  1
  Ba  Ba5  1  0.000000  0.000000  0.500000  1
  Ba  Ba6  1  0.000000  0.000000  0.000000  1
  Y  Y7  1  0.666700  0.333400  0.170100  1
  Y  Y8  1  0.333300  0.666600  0.670100  1
  Y  Y9  1  0.666700  0.333400  0.898800  1
  Y  Y10  1  0.333300  0.666600  0.398800  1
  Si  Si11  1  0.666700  0.333400  0.395000  1
  Si  Si12  1  0.333300  0.666600  0.895000  1
  O  O13  1  0.666700  0.333400  0.280800  1
  O  O14  1  0.333300  0.666600  0.780800  1
  O  O15  1  0.172600  0.345200  0.635100  1
  O  O16  1  0.654800  0.827400  0.635100  1
  O  O17  1  0.172600  0.827400  0.635100  1
  O  O18  1  0.827400  0.654800  0.135100  1
  O  O19  1  0.345200  0.172600  0.135100  1
  O  O20  1  0.827400  0.172600  0.135100  1
  O  O21  1  0.507000  0.014000  0.937500  1
  O  O22  1  0.986000  0.493000  0.937500  1
  O  O23  1  0.507000  0.493000  0.937500  1
  O  O24  1  0.493000  0.986000  0.437500  1
  O  O25  1  0.014000  0.507000  0.437500  1
  O  O26  1  0.493000  0.507000  0.437500  1
  O  O27  1  0.666700  0.333400  0.790000  1
  O  O28  1  0.333300  0.666600  0.290000  1
