# generated using pymatgen
data_Ba6Y2Si4O17
_symmetry_space_group_name_H-M   'P 1'
_cell_length_a   6.56705800
_cell_length_b   6.56705795
_cell_length_c   32.79666100
_cell_angle_alpha   90.00000000
_cell_angle_beta   90.00000000
_cell_angle_gamma   120.00000024
_symmetry_Int_Tables_number   1
_chemical_formula_structural   Ba6Y2Si4O17
_chemical_formula_sum   'Ba12 Y4 Si8 O34'
_cell_volume   1224.90374423
_cell_formula_units_Z   2
loop_
 _symmetry_equiv_pos_site_id
 _symmetry_equiv_pos_as_xyz
  1  'x, y, z'
loop_
 _atom_site_type_symbol
 _atom_site_label
 _atom_site_symmetry_multiplicity
 _atom_site_fract_x
 _atom_site_fract_y
 _atom_site_fract_z
 _atom_site_occupancy
  Ba  Ba1  1  0.666700  0.333400  0.412250  1
  Ba  Ba2  1  0.333300  0.666600  0.587750  1
  Ba  Ba3  1  0.333300  0.666600  0.912250  1
  Ba  Ba4  1  0.666700  0.333400  0.087750  1
  Ba  Ba5  1  0.000000  0.000000  0.500000  1
  Ba  Ba6  1  0.000000  0.000000  0.000000  1
  Ba  Ba7  1  0.333300  0.666600  0.314710  1
  Ba  Ba8  1  0.666700  0.333400  0.685290  1
  Ba  Ba9  1  0.666700  0.333400  0.814710  1
  Ba  Ba10  1  0.333300  0.666600  0.185290  1
  Ba  Ba11  1  0.000000  0.000000  0.250000  1
  Ba  Ba12  1  0.000000  0.000000  0.750000  1
  Y  Y13  1  0.000000  0.000000  0.373590  1
  Y  Y14  1  0.000000  0.000000  0.626410  1
  Y  Y15  1  0.000000  0.000000  0.873590  1
  Y  Y16  1  0.000000  0.000000  0.126410  1
  Si  Si17  1  0.666700  0.333400  0.294900  1
  Si  Si18  1  0.333300  0.666600  0.705100  1
  Si  Si19  1  0.333300  0.666600  0.794900  1
  Si  Si20  1  0.666700  0.333400  0.205100  1
  Si  Si21  1  0.333300  0.666600  0.447300  1
  Si  Si22  1  0.666700  0.333400  0.552700  1
  Si  Si23  1  0.666700  0.333400  0.947300  1
  Si  Si24  1  0.333300  0.666600  0.052700  1
  O  O25  1  0.356400  0.178200  0.330010  1
  O  O26  1  0.821800  0.178200  0.330010  1
  O  O27  1  0.821800  0.643600  0.330010  1
  O  O28  1  0.643600  0.821800  0.669990  1
  O  O29  1  0.178200  0.821800  0.669990  1
  O  O30  1  0.178200  0.356400  0.669990  1
  O  O31  1  0.643600  0.821800  0.830010  1
  O  O32  1  0.178200  0.821800  0.830010  1
  O  O33  1  0.178200  0.356400  0.830010  1
  O  O34  1  0.356400  0.178200  0.169990  1
  O  O35  1  0.821800  0.178200  0.169990  1
  O  O36  1  0.821800  0.643600  0.169990  1
  O  O37  1  0.333300  0.666600  0.503900  1
  O  O38  1  0.666700  0.333400  0.496100  1
  O  O39  1  0.666700  0.333400  0.003900  1
  O  O40  1  0.333300  0.666600  0.996100  1
  O  O41  1  0.659000  0.829500  0.424600  1
  O  O42  1  0.170500  0.829500  0.424600  1
  O  O43  1  0.170500  0.341000  0.424600  1
  O  O44  1  0.341000  0.170500  0.575400  1
  O  O45  1  0.829500  0.170500  0.575400  1
  O  O46  1  0.829500  0.659000  0.575400  1
  O  O47  1  0.341000  0.170500  0.924600  1
  O  O48  1  0.829500  0.170500  0.924600  1
  O  O49  1  0.829500  0.659000  0.924600  1
  O  O50  1  0.659000  0.829500  0.075400  1
  O  O51  1  0.170500  0.829500  0.075400  1
  O  O52  1  0.170500  0.341000  0.075400  1
  O  O53  1  0.522000  0.478000  0.250000  1
  O  O54  1  0.522000  0.044000  0.250000  1
  O  O55  1  0.956000  0.478000  0.250000  1
  O  O56  1  0.478000  0.522000  0.750000  1
  O  O57  1  0.478000  0.956000  0.750000  1
  O  O58  1  0.044000  0.522000  0.750000  1
