# generated using pymatgen
data_BaMg3(SiO4)2
_symmetry_space_group_name_H-M   'P 1'
_cell_length_a   12.46363252
_cell_length_b   7.07687700
_cell_length_c   17.73691400
_cell_angle_alpha   90.00000000
_cell_angle_beta   92.13000360
_cell_angle_gamma   90.00000000
_symmetry_Int_Tables_number   1
_chemical_formula_structural   BaMg3(SiO4)2
_chemical_formula_sum   'Ba4 Mg12 Si8 O32'
_cell_volume   1563.37863204
_cell_formula_units_Z   4
loop_
 _symmetry_equiv_pos_site_id
 _symmetry_equiv_pos_as_xyz
  1  'x, y, z'
loop_
 _atom_site_type_symbol
 _atom_site_label
 _atom_site_symmetry_multiplicity
 _atom_site_fract_x
 _atom_site_fract_y
 _atom_site_fract_z
 _atom_site_occupancy
  Ba  Ba1  1  0.200000  0.750000  0.740000  1
  Ba  Ba2  1  0.800000  0.250000  0.760000  1
  Ba  Ba3  1  0.800000  0.250000  0.260000  1
  Ba  Ba4  1  0.200000  0.750000  0.240000  1
  Mg  Mg5  1  0.420000  0.250000  0.600000  1
  Mg  Mg6  1  0.580000  0.750000  0.900000  1
  Mg  Mg7  1  0.580000  0.750000  0.400000  1
  Mg  Mg8  1  0.420000  0.250000  0.100000  1
  Mg  Mg9  1  0.110000  0.250000  0.870000  1
  Mg  Mg10  1  0.890000  0.750000  0.630000  1
  Mg  Mg11  1  0.890000  0.750000  0.130000  1
  Mg  Mg12  1  0.110000  0.250000  0.370000  1
  Mg  Mg13  1  0.270000  0.750000  0.500000  1
  Mg  Mg14  1  0.730000  0.250000  0.000000  1
  Mg  Mg15  1  0.730000  0.250000  0.500000  1
  Mg  Mg16  1  0.270000  0.750000  0.000000  1
  Si  Si17  1  0.420000  0.210000  0.830000  1
  Si  Si18  1  0.580000  0.710000  0.670000  1
  Si  Si19  1  0.580000  0.790000  0.170000  1
  Si  Si20  1  0.420000  0.290000  0.330000  1
  Si  Si21  1  0.070000  0.290000  0.620000  1
  Si  Si22  1  0.930000  0.790000  0.880000  1
  Si  Si23  1  0.930000  0.710000  0.380000  1
  Si  Si24  1  0.070000  0.210000  0.120000  1
  O  O25  1  0.310000  0.420000  0.770000  1
  O  O26  1  0.690000  0.920000  0.730000  1
  O  O27  1  0.690000  0.580000  0.230000  1
  O  O28  1  0.310000  0.080000  0.270000  1
  O  O29  1  0.150000  0.420000  0.530000  1
  O  O30  1  0.850000  0.920000  0.970000  1
  O  O31  1  0.850000  0.580000  0.470000  1
  O  O32  1  0.150000  0.080000  0.030000  1
  O  O33  1  0.940000  0.120000  0.580000  1
  O  O34  1  0.060000  0.620000  0.920000  1
  O  O35  1  0.060000  0.880000  0.420000  1
  O  O36  1  0.940000  0.380000  0.080000  1
  O  O37  1  0.330000  0.070000  0.880000  1
  O  O38  1  0.670000  0.570000  0.620000  1
  O  O39  1  0.670000  0.930000  0.120000  1
  O  O40  1  0.330000  0.430000  0.380000  1
  O  O41  1  0.560000  0.310000  0.900000  1
  O  O42  1  0.440000  0.810000  0.600000  1
  O  O43  1  0.440000  0.690000  0.100000  1
  O  O44  1  0.560000  0.190000  0.400000  1
  O  O45  1  0.490000  0.030000  0.750000  1
  O  O46  1  0.510000  0.530000  0.750000  1
  O  O47  1  0.510000  0.970000  0.250000  1
  O  O48  1  0.490000  0.470000  0.250000  1
  O  O49  1  0.010000  0.540000  0.730000  1
  O  O50  1  0.990000  0.040000  0.770000  1
  O  O51  1  0.990000  0.460000  0.270000  1
  O  O52  1  0.010000  0.960000  0.230000  1
  O  O53  1  0.190000  0.100000  0.660000  1
  O  O54  1  0.810000  0.600000  0.840000  1
  O  O55  1  0.810000  0.900000  0.340000  1
  O  O56  1  0.190000  0.400000  0.160000  1
