# generated using pymatgen
data_BaY2(B2O5)2
_symmetry_space_group_name_H-M   'P 1'
_cell_length_a   6.49580010
_cell_length_b   10.34907100
_cell_length_c   13.32446100
_cell_angle_alpha   90.00000000
_cell_angle_beta   90.01000237
_cell_angle_gamma   90.00000000
_symmetry_Int_Tables_number   1
_chemical_formula_structural   BaY2(B2O5)2
_chemical_formula_sum   'Ba2 Y4 B8 O20'
_cell_volume   895.743491687
_cell_formula_units_Z   2
loop_
 _symmetry_equiv_pos_site_id
 _symmetry_equiv_pos_as_xyz
  1  'x, y, z'
loop_
 _atom_site_type_symbol
 _atom_site_label
 _atom_site_symmetry_multiplicity
 _atom_site_fract_x
 _atom_site_fract_y
 _atom_site_fract_z
 _atom_site_occupancy
  Ba  Ba1  1  0.000000  0.500000  0.500000  1
  Ba  Ba2  1  0.000000  0.000000  0.000000  1
  Y  Y3  1  0.002800  0.396790  0.165800  1
  Y  Y4  1  0.997200  0.896790  0.334200  1
  Y  Y5  1  0.997200  0.603210  0.834200  1
  Y  Y6  1  0.002800  0.103210  0.665800  1
  B  B7  1  0.471800  0.402700  0.661300  1
  B  B8  1  0.528200  0.902700  0.838700  1
  B  B9  1  0.528200  0.597300  0.338700  1
  B  B10  1  0.471800  0.097300  0.161300  1
  B  B11  1  0.463500  0.732400  0.081100  1
  B  B12  1  0.536500  0.232400  0.418900  1
  B  B13  1  0.536500  0.267600  0.918900  1
  B  B14  1  0.463500  0.767600  0.581100  1
  O  O15  1  0.321700  0.591100  0.640200  1
  O  O16  1  0.678300  0.091100  0.859800  1
  O  O17  1  0.678300  0.408900  0.359800  1
  O  O18  1  0.321700  0.908900  0.140200  1
  O  O19  1  0.785900  0.410500  0.663900  1
  O  O20  1  0.214100  0.910500  0.836100  1
  O  O21  1  0.214100  0.589500  0.336100  1
  O  O22  1  0.785900  0.089500  0.163900  1
  O  O23  1  0.234100  0.613000  0.040500  1
  O  O24  1  0.765900  0.113000  0.459500  1
  O  O25  1  0.765900  0.387000  0.959500  1
  O  O26  1  0.234100  0.887000  0.540500  1
  O  O27  1  0.336300  0.333300  0.798500  1
  O  O28  1  0.663700  0.833300  0.701500  1
  O  O29  1  0.663700  0.666700  0.201500  1
  O  O30  1  0.336300  0.166700  0.298500  1
  O  O31  1  0.350500  0.283400  0.544500  1
  O  O32  1  0.649500  0.783400  0.955500  1
  O  O33  1  0.649500  0.716600  0.455500  1
  O  O34  1  0.350500  0.216600  0.044500  1
