# generated using pymatgen
data_Ca3Mg3Al4O12
_symmetry_space_group_name_H-M   'P 1'
_cell_length_a   9.32515600
_cell_length_b   10.49344570
_cell_length_c   10.49344570
_cell_angle_alpha   78.61321215
_cell_angle_beta   63.61936566
_cell_angle_gamma   63.61936566
_symmetry_Int_Tables_number   1
_chemical_formula_structural   Ca3Mg3Al4O12
_chemical_formula_sum   'Ca6 Mg6 Al8 O24'
_cell_volume   824.089858507
_cell_formula_units_Z   2
loop_
 _symmetry_equiv_pos_site_id
 _symmetry_equiv_pos_as_xyz
  1  'x, y, z'
loop_
 _atom_site_type_symbol
 _atom_site_label
 _atom_site_symmetry_multiplicity
 _atom_site_fract_x
 _atom_site_fract_y
 _atom_site_fract_z
 _atom_site_occupancy
  Ca  Ca1  1  0.500000  0.000000  0.000000  1
  Ca  Ca2  1  0.000000  0.000000  0.000000  1
  Ca  Ca3  1  0.279590  0.940820  0.500000  1
  Ca  Ca4  1  0.720410  0.059180  0.500000  1
  Ca  Ca5  1  0.220410  0.500000  0.059180  1
  Ca  Ca6  1  0.779590  0.500000  0.940820  1
  Mg  Mg7  1  0.105500  0.289000  0.500000  1
  Mg  Mg8  1  0.894500  0.711000  0.500000  1
  Mg  Mg9  1  0.394500  0.500000  0.711000  1
  Mg  Mg10  1  0.605500  0.500000  0.289000  1
  Mg  Mg11  1  0.750000  0.500000  0.500000  1
  Mg  Mg12  1  0.250000  0.500000  0.500000  1
  Al  Al13  1  0.750000  0.757320  0.242680  1
  Al  Al14  1  0.750000  0.242680  0.757320  1
  Al  Al15  1  0.250000  0.757320  0.242680  1
  Al  Al16  1  0.250000  0.242680  0.757320  1
  Al  Al17  1  0.992680  0.757320  0.757320  1
  Al  Al18  1  0.507320  0.242680  0.242680  1
  Al  Al19  1  0.492680  0.757320  0.757320  1
  Al  Al20  1  0.007320  0.242680  0.242680  1
  O  O21  1  0.001600  0.267700  0.729100  1
  O  O22  1  0.998400  0.732300  0.270900  1
  O  O23  1  0.498400  0.270900  0.732300  1
  O  O24  1  0.501600  0.729100  0.267700  1
  O  O25  1  0.730700  0.270900  0.267700  1
  O  O26  1  0.269300  0.729100  0.732300  1
  O  O27  1  0.230700  0.267700  0.270900  1
  O  O28  1  0.769300  0.732300  0.729100  1
  O  O29  1  0.879700  0.740600  0.000000  1
  O  O30  1  0.620300  0.259400  0.000000  1
  O  O31  1  0.120300  1.000000  0.259400  1
  O  O32  1  0.379700  0.000000  0.740600  1
  O  O33  1  0.879700  0.000000  0.740600  1
  O  O34  1  0.620300  1.000000  0.259400  1
  O  O35  1  0.379700  0.740600  0.000000  1
  O  O36  1  0.120300  0.259400  0.000000  1
  O  O37  1  0.339500  0.277000  0.500000  1
  O  O38  1  0.116500  0.723000  0.500000  1
  O  O39  1  0.616500  0.500000  0.723000  1
  O  O40  1  0.839500  0.500000  0.277000  1
  O  O41  1  0.660500  0.723000  0.500000  1
  O  O42  1  0.883500  0.277000  0.500000  1
  O  O43  1  0.383500  0.500000  0.277000  1
  O  O44  1  0.160500  0.500000  0.723000  1
