# generated using pymatgen
data_CaY2(SiO4)2
_symmetry_space_group_name_H-M   'P 1'
_cell_length_a   9.80449300
_cell_length_b   11.29005776
_cell_length_c   11.29005776
_cell_angle_alpha   79.13255005
_cell_angle_beta   64.26502063
_cell_angle_gamma   64.26502063
_symmetry_Int_Tables_number   1
_chemical_formula_structural   CaY2(SiO4)2
_chemical_formula_sum   'Ca4 Y8 Si8 O32'
_cell_volume   1014.11193274
_cell_formula_units_Z   4
loop_
 _symmetry_equiv_pos_site_id
 _symmetry_equiv_pos_as_xyz
  1  'x, y, z'
loop_
 _atom_site_type_symbol
 _atom_site_label
 _atom_site_symmetry_multiplicity
 _atom_site_fract_x
 _atom_site_fract_y
 _atom_site_fract_z
 _atom_site_occupancy
  Ca  Ca1  1  0.125000  0.750000  0.250000  1
  Ca  Ca2  1  0.625000  0.750000  0.250000  1
  Ca  Ca3  1  0.375000  0.250000  0.750000  1
  Ca  Ca4  1  0.875000  0.250000  0.750000  1
  Y  Y5  1  0.043200  0.413600  0.250000  1
  Y  Y6  1  0.206800  0.750000  0.586400  1
  Y  Y7  1  0.293200  0.913600  0.750000  1
  Y  Y8  1  0.456800  0.250000  0.086400  1
  Y  Y9  1  0.956800  0.586400  0.750000  1
  Y  Y10  1  0.793200  0.250000  0.413600  1
  Y  Y11  1  0.706800  0.086400  0.250000  1
  Y  Y12  1  0.543200  0.750000  0.913600  1
  Si  Si13  1  0.750000  0.919000  0.581000  1
  Si  Si14  1  0.750000  0.419000  0.081000  1
  Si  Si15  1  0.331000  0.419000  0.419000  1
  Si  Si16  1  0.669000  0.581000  0.581000  1
  Si  Si17  1  0.250000  0.081000  0.419000  1
  Si  Si18  1  0.250000  0.581000  0.919000  1
  Si  Si19  1  0.831000  0.919000  0.919000  1
  Si  Si20  1  0.169000  0.081000  0.081000  1
  O  O21  1  0.958000  0.768000  0.584000  1
  O  O22  1  0.810000  0.416000  0.232000  1
  O  O23  1  0.542000  0.268000  0.416000  1
  O  O24  1  0.726000  0.584000  0.732000  1
  O  O25  1  0.042000  0.232000  0.416000  1
  O  O26  1  0.190000  0.584000  0.768000  1
  O  O27  1  0.458000  0.732000  0.584000  1
  O  O28  1  0.274000  0.416000  0.268000  1
  O  O29  1  0.458000  0.084000  0.268000  1
  O  O30  1  0.310000  0.732000  0.916000  1
  O  O31  1  0.042000  0.916000  0.768000  1
  O  O32  1  0.226000  0.232000  0.084000  1
  O  O33  1  0.542000  0.916000  0.732000  1
  O  O34  1  0.690000  0.268000  0.084000  1
  O  O35  1  0.958000  0.084000  0.232000  1
  O  O36  1  0.774000  0.768000  0.916000  1
  O  O37  1  0.933000  0.414000  0.912000  1
  O  O38  1  0.759000  0.088000  0.586000  1
  O  O39  1  0.845000  0.914000  0.088000  1
  O  O40  1  0.347000  0.912000  0.086000  1
  O  O41  1  0.067000  0.586000  0.088000  1
  O  O42  1  0.241000  0.912000  0.414000  1
  O  O43  1  0.155000  0.086000  0.912000  1
  O  O44  1  0.653000  0.088000  0.914000  1
  O  O45  1  0.433000  0.412000  0.914000  1
  O  O46  1  0.259000  0.086000  0.588000  1
  O  O47  1  0.345000  0.588000  0.414000  1
  O  O48  1  0.847000  0.586000  0.412000  1
  O  O49  1  0.567000  0.588000  0.086000  1
  O  O50  1  0.741000  0.914000  0.412000  1
  O  O51  1  0.655000  0.412000  0.586000  1
  O  O52  1  0.153000  0.414000  0.588000  1
