# generated using pymatgen
data_CaY2(SiO4)2
_symmetry_space_group_name_H-M   'P 1'
_cell_length_a   6.57439329
_cell_length_b   10.64619100
_cell_length_c   11.60358131
_cell_angle_alpha   62.89692359
_cell_angle_beta   73.84807773
_cell_angle_gamma   90.63776751
_symmetry_Int_Tables_number   1
_chemical_formula_structural   CaY2(SiO4)2
_chemical_formula_sum   'Ca2 Y4 Si4 O16'
_cell_volume   685.351505309
_cell_formula_units_Z   2
loop_
 _symmetry_equiv_pos_site_id
 _symmetry_equiv_pos_as_xyz
  1  'x, y, z'
loop_
 _atom_site_type_symbol
 _atom_site_label
 _atom_site_symmetry_multiplicity
 _atom_site_fract_x
 _atom_site_fract_y
 _atom_site_fract_z
 _atom_site_occupancy
  Ca  Ca1  1  0.231000  0.235000  0.585800  1
  Ca  Ca2  1  0.816800  0.820800  0.414200  1
  Y  Y3  1  0.418600  0.623700  0.239600  1
  Y  Y4  1  0.658200  0.863300  0.760400  1
  Y  Y5  1  0.409500  0.119500  0.241000  1
  Y  Y6  1  0.650500  0.360500  0.759000  1
  Si  Si7  1  0.230500  0.691700  0.580800  1
  Si  Si8  1  0.811300  0.272500  0.419200  1
  Si  Si9  1  0.081500  0.495000  1.000000  1
  Si  Si10  1  0.991000  0.998400  0.000000  1
  O  O11  1  0.579600  0.409100  0.481000  1
  O  O12  1  0.060600  0.890100  0.519000  1
  O  O13  1  0.519900  0.668700  0.653800  1
  O  O14  1  0.173700  0.322500  0.346200  1
  O  O15  1  0.783400  0.831400  1.000000  1
  O  O16  1  0.288600  0.330800  -0.000000  1
  O  O17  1  0.776800  0.403400  0.185600  1
  O  O18  1  0.962400  0.589000  0.814400  1
  O  O19  1  0.611400  0.073500  0.467200  1
  O  O20  1  0.078600  0.540700  0.532800  1
  O  O21  1  0.285000  0.096200  0.814400  1
  O  O22  1  0.099400  0.910600  0.185600  1
  O  O23  1  0.776400  0.162300  0.000000  1
  O  O24  1  0.286900  0.665900  1.000000  1
  O  O25  1  0.504700  0.817300  0.346200  1
  O  O26  1  0.850900  0.163500  0.653800  1
