# generated using pymatgen
data_CaYPO5
_symmetry_space_group_name_H-M   'P 1'
_cell_length_a   12.53646300
_cell_length_b   6.07485000
_cell_length_c   17.41386900
_cell_angle_alpha   90.00000000
_cell_angle_beta   90.00000000
_cell_angle_gamma   90.00000000
_symmetry_Int_Tables_number   1
_chemical_formula_structural   CaYPO5
_chemical_formula_sum   'Ca8 Y8 P8 O40'
_cell_volume   1326.19032451
_cell_formula_units_Z   8
loop_
 _symmetry_equiv_pos_site_id
 _symmetry_equiv_pos_as_xyz
  1  'x, y, z'
loop_
 _atom_site_type_symbol
 _atom_site_label
 _atom_site_symmetry_multiplicity
 _atom_site_fract_x
 _atom_site_fract_y
 _atom_site_fract_z
 _atom_site_occupancy
  Ca  Ca1  1  0.640200  0.006700  0.053900  1
  Ca  Ca2  1  0.140200  0.493300  0.946100  1
  Ca  Ca3  1  0.359800  0.506700  0.446100  1
  Ca  Ca4  1  0.859800  0.993300  0.553900  1
  Ca  Ca5  1  0.359800  0.993300  0.946100  1
  Ca  Ca6  1  0.859800  0.506700  0.053900  1
  Ca  Ca7  1  0.640200  0.493300  0.553900  1
  Ca  Ca8  1  0.140200  0.006700  0.446100  1
  Y  Y9  1  0.653500  0.040700  0.733800  1
  Y  Y10  1  0.153500  0.459300  0.266200  1
  Y  Y11  1  0.346500  0.540700  0.766200  1
  Y  Y12  1  0.846500  0.959300  0.233800  1
  Y  Y13  1  0.346500  0.959300  0.266200  1
  Y  Y14  1  0.846500  0.540700  0.733800  1
  Y  Y15  1  0.653500  0.459300  0.233800  1
  Y  Y16  1  0.153500  0.040700  0.766200  1
  P  P17  1  0.404000  0.987800  0.598100  1
  P  P18  1  0.904000  0.512200  0.401900  1
  P  P19  1  0.596000  0.487800  0.901900  1
  P  P20  1  0.096000  0.012200  0.098100  1
  P  P21  1  0.596000  0.012200  0.401900  1
  P  P22  1  0.096000  0.487800  0.598100  1
  P  P23  1  0.404000  0.512200  0.098100  1
  P  P24  1  0.904000  0.987800  0.901900  1
  O  O25  1  0.770000  0.252000  0.656000  1
  O  O26  1  0.270000  0.248000  0.344000  1
  O  O27  1  0.230000  0.752000  0.844000  1
  O  O28  1  0.730000  0.748000  0.156000  1
  O  O29  1  0.230000  0.748000  0.344000  1
  O  O30  1  0.730000  0.752000  0.656000  1
  O  O31  1  0.770000  0.248000  0.156000  1
  O  O32  1  0.270000  0.252000  0.844000  1
  O  O33  1  0.024000  0.167000  0.877000  1
  O  O34  1  0.524000  0.333000  0.123000  1
  O  O35  1  0.976000  0.667000  0.623000  1
  O  O36  1  0.476000  0.833000  0.377000  1
  O  O37  1  0.976000  0.833000  0.123000  1
  O  O38  1  0.476000  0.667000  0.877000  1
  O  O39  1  0.024000  0.333000  0.377000  1
  O  O40  1  0.524000  0.167000  0.623000  1
  O  O41  1  0.548000  0.296000  0.431000  1
  O  O42  1  0.048000  0.204000  0.569000  1
  O  O43  1  0.452000  0.796000  0.069000  1
  O  O44  1  0.952000  0.704000  0.931000  1
  O  O45  1  0.452000  0.704000  0.569000  1
  O  O46  1  0.952000  0.796000  0.431000  1
  O  O47  1  0.548000  0.204000  0.931000  1
  O  O48  1  0.048000  0.296000  0.069000  1
  O  O49  1  0.815000  0.122000  0.977000  1
  O  O50  1  0.315000  0.378000  0.023000  1
  O  O51  1  0.185000  0.622000  0.523000  1
  O  O52  1  0.685000  0.878000  0.477000  1
  O  O53  1  0.185000  0.878000  0.023000  1
  O  O54  1  0.685000  0.622000  0.977000  1
  O  O55  1  0.815000  0.378000  0.477000  1
  O  O56  1  0.315000  0.122000  0.523000  1
  O  O57  1  0.675000  0.455000  0.806000  1
  O  O58  1  0.175000  0.045000  0.194000  1
  O  O59  1  0.325000  0.955000  0.694000  1
  O  O60  1  0.825000  0.545000  0.306000  1
  O  O61  1  0.325000  0.545000  0.194000  1
  O  O62  1  0.825000  0.955000  0.806000  1
  O  O63  1  0.675000  0.045000  0.306000  1
  O  O64  1  0.175000  0.455000  0.694000  1
