# generated using pymatgen
data_LiNbS3
_symmetry_space_group_name_H-M   'P 1'
_cell_length_a   12.23181200
_cell_length_b   12.23181200
_cell_length_c   12.23181200
_cell_angle_alpha   90.00000000
_cell_angle_beta   90.00000000
_cell_angle_gamma   90.00000000
_symmetry_Int_Tables_number   1
_chemical_formula_structural   LiNbS3
_chemical_formula_sum   'Li6 Nb6 S18'
_cell_volume   1830.08976576
_cell_formula_units_Z   6
loop_
 _symmetry_equiv_pos_site_id
 _symmetry_equiv_pos_as_xyz
  1  'x, y, z'
loop_
 _atom_site_type_symbol
 _atom_site_label
 _atom_site_symmetry_multiplicity
 _atom_site_fract_x
 _atom_site_fract_y
 _atom_site_fract_z
 _atom_site_occupancy
  Li  Li1  1  0.333333  0.666667  0.949498  1
  Li  Li2  1  0.666667  0.333333  0.116165  1
  Li  Li3  1  0.000000  0.000000  0.282832  1
  Li  Li4  1  0.333333  0.666667  0.449498  1
  Li  Li5  1  0.666667  0.333333  0.616165  1
  Li  Li6  1  0.000000  0.000000  0.782832  1
  Nb  Nb7  1  0.000000  0.000000  0.000769  1
  Nb  Nb8  1  0.666667  0.333333  0.834103  1
  Nb  Nb9  1  0.666667  0.333333  0.334103  1
  Nb  Nb10  1  0.333333  0.666667  0.167436  1
  Nb  Nb11  1  0.333333  0.666667  0.667436  1
  Nb  Nb12  1  0.000000  0.000000  0.500769  1
  S  S13  1  0.046299  0.343282  0.063333  1
  S  S14  1  0.656718  0.703017  0.063333  1
  S  S15  1  0.296983  0.953701  0.063333  1
  S  S16  1  0.963649  0.676615  0.896666  1
  S  S17  1  0.323385  0.287034  0.896666  1
  S  S18  1  0.712966  0.036351  0.896666  1
  S  S19  1  0.712966  0.676615  0.396666  1
  S  S20  1  0.323385  0.036351  0.396666  1
  S  S21  1  0.963649  0.287034  0.396666  1
  S  S22  1  0.630316  0.009949  0.230000  1
  S  S23  1  0.990051  0.620367  0.230000  1
  S  S24  1  0.379633  0.369684  0.230000  1
  S  S25  1  0.379633  0.009949  0.730000  1
  S  S26  1  0.990051  0.369684  0.730000  1
  S  S27  1  0.630316  0.620367  0.730000  1
  S  S28  1  0.296983  0.343282  0.563333  1
  S  S29  1  0.656718  0.953701  0.563333  1
  S  S30  1  0.046299  0.703017  0.563333  1
