# generated using pymatgen
data_MnPO4
_symmetry_space_group_name_H-M   'P 1'
_cell_length_a   5.28731700
_cell_length_b   6.40855900
_cell_length_c   10.81193000
_cell_angle_alpha   90.00000000
_cell_angle_beta   90.00000000
_cell_angle_gamma   90.00000000
_symmetry_Int_Tables_number   1
_chemical_formula_structural   MnPO4
_chemical_formula_sum   'Mn4 P4 O16'
_cell_volume   366.352332929
_cell_formula_units_Z   4
loop_
 _symmetry_equiv_pos_site_id
 _symmetry_equiv_pos_as_xyz
  1  'x, y, z'
loop_
 _atom_site_type_symbol
 _atom_site_label
 _atom_site_symmetry_multiplicity
 _atom_site_fract_x
 _atom_site_fract_y
 _atom_site_fract_z
 _atom_site_occupancy
  Mn  Mn1  1  0.467803  0.750000  0.775002  1
  Mn  Mn2  1  0.967803  0.250000  0.724998  1
  Mn  Mn3  1  0.032197  0.750000  0.275002  1
  Mn  Mn4  1  0.532197  0.250000  0.224998  1
  P  P5  1  0.582429  0.750000  0.098405  1
  P  P6  1  0.082429  0.250000  0.401595  1
  P  P7  1  0.917571  0.750000  0.598405  1
  P  P8  1  0.417571  0.250000  0.901595  1
  O  O9  1  0.145025  0.250000  0.551137  1
  O  O10  1  0.725350  0.250000  0.877493  1
  O  O11  1  0.270621  0.048202  0.827706  1
  O  O12  1  0.270621  0.451798  0.827706  1
  O  O13  1  0.354975  0.250000  0.051137  1
  O  O14  1  0.274650  0.750000  0.122507  1
  O  O15  1  0.729379  0.951798  0.172294  1
  O  O16  1  0.729379  0.548202  0.172294  1
  O  O17  1  0.229379  0.451798  0.327706  1
  O  O18  1  0.770621  0.548202  0.672294  1
  O  O19  1  0.774650  0.250000  0.377493  1
  O  O20  1  0.854975  0.750000  0.448863  1
  O  O21  1  0.645025  0.750000  0.948863  1
  O  O22  1  0.225350  0.750000  0.622507  1
  O  O23  1  0.770621  0.951798  0.672294  1
  O  O24  1  0.229379  0.048202  0.327706  1
