# generated using pymatgen
data_Sr2YAlO5
_symmetry_space_group_name_H-M   'P 1'
_cell_length_a   3.66670400
_cell_length_b   8.31096824
_cell_length_c   11.47766100
_cell_angle_alpha   90.00000000
_cell_angle_beta   90.00000000
_cell_angle_gamma   102.74393992
_symmetry_Int_Tables_number   1
_chemical_formula_structural   Sr2YAlO5
_chemical_formula_sum   'Sr4 Y2 Al2 O10'
_cell_volume   341.152319506
_cell_formula_units_Z   2
loop_
 _symmetry_equiv_pos_site_id
 _symmetry_equiv_pos_as_xyz
  1  'x, y, z'
loop_
 _atom_site_type_symbol
 _atom_site_label
 _atom_site_symmetry_multiplicity
 _atom_site_fract_x
 _atom_site_fract_y
 _atom_site_fract_z
 _atom_site_occupancy
  Sr  Sr1  1  0.117210  0.234420  0.818340  1
  Sr  Sr2  1  0.882790  0.765580  0.318340  1
  Sr  Sr3  1  0.132860  0.265720  0.187040  1
  Sr  Sr4  1  0.867140  0.734280  0.687040  1
  Y  Y5  1  0.211100  0.422200  0.482090  1
  Y  Y6  1  0.788900  0.577800  0.982090  1
  Al  Al7  1  0.447680  0.895360  0.062650  1
  Al  Al8  1  0.552320  0.104640  0.562650  1
  O  O9  1  0.050830  0.101660  0.449360  1
  O  O10  1  0.949170  0.898340  0.949360  1
  O  O11  1  0.312420  0.624840  0.129920  1
  O  O12  1  0.687580  0.375160  0.629920  1
  O  O13  1  0.290820  0.581640  0.843150  1
  O  O14  1  0.709180  0.418360  0.343150  1
  O  O15  1  0.356480  0.712960  0.500000  1
  O  O16  1  0.643520  0.287040  0.000000  1
  O  O17  1  0.504700  0.009400  0.233650  1
  O  O18  1  0.495300  0.990600  0.733650  1
