# generated using pymatgen
data_SrYAlO4
_symmetry_space_group_name_H-M   'P 1'
_cell_length_a   14.01706300
_cell_length_b   6.07298100
_cell_length_c   10.92784900
_cell_angle_alpha   90.00000000
_cell_angle_beta   90.00000000
_cell_angle_gamma   90.00000000
_symmetry_Int_Tables_number   1
_chemical_formula_structural   SrYAlO4
_chemical_formula_sum   'Sr8 Y8 Al8 O32'
_cell_volume   930.23705037
_cell_formula_units_Z   8
loop_
 _symmetry_equiv_pos_site_id
 _symmetry_equiv_pos_as_xyz
  1  'x, y, z'
loop_
 _atom_site_type_symbol
 _atom_site_label
 _atom_site_symmetry_multiplicity
 _atom_site_fract_x
 _atom_site_fract_y
 _atom_site_fract_z
 _atom_site_occupancy
  Sr  Sr1  1  0.711605  0.250000  0.826090  1
  Sr  Sr2  1  0.211605  0.250000  0.673910  1
  Sr  Sr3  1  0.288395  0.750000  0.173910  1
  Sr  Sr4  1  0.788395  0.750000  0.326090  1
  Sr  Sr5  1  0.914683  0.250000  0.104150  1
  Sr  Sr6  1  0.414683  0.250000  0.395850  1
  Sr  Sr7  1  0.085317  0.750000  0.895850  1
  Sr  Sr8  1  0.585317  0.750000  0.604150  1
  Y  Y9  1  0.643370  0.250000  0.190830  1
  Y  Y10  1  0.143370  0.250000  0.309170  1
  Y  Y11  1  0.356630  0.750000  0.809170  1
  Y  Y12  1  0.856630  0.750000  0.690830  1
  Y  Y13  1  0.914550  0.250000  0.484860  1
  Y  Y14  1  0.414550  0.250000  0.015140  1
  Y  Y15  1  0.085450  0.750000  0.515140  1
  Y  Y16  1  0.585450  0.750000  0.984860  1
  Al  Al17  1  0.689790  0.250000  0.477960  1
  Al  Al18  1  0.189790  0.250000  0.022040  1
  Al  Al19  1  0.310210  0.750000  0.522040  1
  Al  Al20  1  0.810210  0.750000  0.977960  1
  Al  Al21  1  0.969360  0.250000  0.783770  1
  Al  Al22  1  0.469360  0.250000  0.716230  1
  Al  Al23  1  0.030640  0.750000  0.216230  1
  Al  Al24  1  0.530640  0.750000  0.283770  1
  O  O25  1  0.791400  0.250000  0.317800  1
  O  O26  1  0.291400  0.250000  0.182200  1
  O  O27  1  0.208600  0.750000  0.682200  1
  O  O28  1  0.708600  0.750000  0.817800  1
  O  O29  1  0.081900  0.250000  0.885600  1
  O  O30  1  0.581900  0.250000  0.614400  1
  O  O31  1  0.918100  0.750000  0.114400  1
  O  O32  1  0.418100  0.750000  0.385600  1
  O  O33  1  0.717360  0.508900  0.059620  1
  O  O34  1  0.217360  0.991100  0.440380  1
  O  O35  1  0.282640  0.008900  0.940380  1
  O  O36  1  0.782640  0.491100  0.559620  1
  O  O37  1  0.282640  0.491100  0.940380  1
  O  O38  1  0.782640  0.008900  0.559620  1
  O  O39  1  0.717360  0.991100  0.059620  1
  O  O40  1  0.217360  0.508900  0.440380  1
  O  O41  1  0.610710  0.997700  0.367840  1
  O  O42  1  0.110710  0.502300  0.132160  1
  O  O43  1  0.389290  0.497700  0.632160  1
  O  O44  1  0.889290  0.002300  0.867840  1
  O  O45  1  0.389290  0.002300  0.632160  1
  O  O46  1  0.889290  0.497700  0.867840  1
  O  O47  1  0.610710  0.502300  0.367840  1
  O  O48  1  0.110710  0.997700  0.132160  1
  O  O49  1  0.504770  0.508700  0.142220  1
  O  O50  1  0.004770  0.991300  0.357780  1
  O  O51  1  0.495230  0.008700  0.857780  1
  O  O52  1  0.995230  0.491300  0.642220  1
  O  O53  1  0.495230  0.491300  0.857780  1
  O  O54  1  0.995230  0.008700  0.642220  1
  O  O55  1  0.504770  0.991300  0.142220  1
  O  O56  1  0.004770  0.508700  0.357780  1
