# generated using pymatgen
data_Al2O3
_symmetry_space_group_name_H-M   'P 1'
_cell_length_a   6.01860700
_cell_length_b   6.01860763
_cell_length_c   12.05104700
_cell_angle_alpha   90.00000000
_cell_angle_beta   90.00000000
_cell_angle_gamma   120.00000202
_symmetry_Int_Tables_number   1
_chemical_formula_structural   Al2O3
_chemical_formula_sum   'Al6 O9'
_cell_volume   378.048414162
_cell_formula_units_Z   3
loop_
 _symmetry_equiv_pos_site_id
 _symmetry_equiv_pos_as_xyz
  1  'x, y, z'
loop_
 _atom_site_type_symbol
 _atom_site_label
 _atom_site_symmetry_multiplicity
 _atom_site_fract_x
 _atom_site_fract_y
 _atom_site_fract_z
 _atom_site_occupancy
  Al  Al1  1  0.402757  0.218442  0.224093  1
  Al  Al2  1  0.781558  0.184315  0.557426  1
  Al  Al3  1  0.815685  0.597243  0.890759  1
  Al  Al4  1  0.184315  0.781558  0.442574  1
  Al  Al5  1  0.218442  0.402757  0.775907  1
  Al  Al6  1  0.597243  0.815685  0.109241  1
  O  O7  1  0.466179  0.875958  0.537574  1
  O  O8  1  0.409779  0.533821  0.204240  1
  O  O9  1  0.124042  0.590221  0.870907  1
  O  O10  1  0.178640  0.000000  0.333333  1
  O  O11  1  0.000000  0.178640  0.666667  1
  O  O12  1  0.821360  0.821360  0.000000  1
  O  O13  1  0.875958  0.466179  0.462426  1
  O  O14  1  0.533821  0.409779  0.795760  1
  O  O15  1  0.590221  0.124042  0.129093  1
