# generated using pymatgen
data_BaLi2P2O7
_symmetry_space_group_name_H-M   'P 1'
_cell_length_a   11.72999387
_cell_length_b   6.78136500
_cell_length_c   15.53883700
_cell_angle_alpha   90.00000000
_cell_angle_beta   104.21999803
_cell_angle_gamma   90.00000000
_symmetry_Int_Tables_number   1
_chemical_formula_structural   BaLi2P2O7
_chemical_formula_sum   'Ba4 Li8 P8 O28'
_cell_volume   1198.16978683
_cell_formula_units_Z   4
loop_
 _symmetry_equiv_pos_site_id
 _symmetry_equiv_pos_as_xyz
  1  'x, y, z'
loop_
 _atom_site_type_symbol
 _atom_site_label
 _atom_site_symmetry_multiplicity
 _atom_site_fract_x
 _atom_site_fract_y
 _atom_site_fract_z
 _atom_site_occupancy
  Ba  Ba1  1  0.248290  0.738530  0.981470  1
  Ba  Ba2  1  0.748290  0.761470  0.481470  1
  Ba  Ba3  1  0.751710  0.261470  0.018530  1
  Ba  Ba4  1  0.251710  0.238530  0.518530  1
  Li  Li5  1  0.856450  0.230010  0.321740  1
  Li  Li6  1  0.356450  0.269990  0.821740  1
  Li  Li7  1  0.143550  0.769990  0.678260  1
  Li  Li8  1  0.643550  0.730010  0.178260  1
  Li  Li9  1  0.372290  0.737660  0.358570  1
  Li  Li10  1  0.872290  0.762340  0.858570  1
  Li  Li11  1  0.627710  0.262340  0.641430  1
  Li  Li12  1  0.127710  0.237660  0.141430  1
  P  P13  1  0.052640  0.720070  0.373960  1
  P  P14  1  0.552640  0.779930  0.873960  1
  P  P15  1  0.947360  0.279930  0.626040  1
  P  P16  1  0.447360  0.220070  0.126040  1
  P  P17  1  0.969710  0.744800  0.141640  1
  P  P18  1  0.469710  0.755200  0.641640  1
  P  P19  1  0.030290  0.255200  0.858360  1
  P  P20  1  0.530290  0.244800  0.358360  1
  O  O21  1  0.897000  0.736770  0.367010  1
  O  O22  1  0.397000  0.763230  0.867010  1
  O  O23  1  0.103000  0.263230  0.632990  1
  O  O24  1  0.603000  0.236770  0.132990  1
  O  O25  1  0.142580  0.896500  0.446690  1
  O  O26  1  0.642580  0.603500  0.946690  1
  O  O27  1  0.857420  0.103500  0.553310  1
  O  O28  1  0.357420  0.396500  0.053310  1
  O  O29  1  0.895820  0.512480  0.148030  1
  O  O30  1  0.395820  0.987520  0.648030  1
  O  O31  1  0.104180  0.487520  0.851970  1
  O  O32  1  0.604180  0.012480  0.351970  1
  O  O33  1  0.109890  0.471450  0.390160  1
  O  O34  1  0.609890  0.028550  0.890160  1
  O  O35  1  0.890110  0.528550  0.609840  1
  O  O36  1  0.390110  0.971450  0.109840  1
  O  O37  1  0.872360  0.955010  0.121130  1
  O  O38  1  0.372360  0.544990  0.621130  1
  O  O39  1  0.127640  0.044990  0.878870  1
  O  O40  1  0.627640  0.455010  0.378870  1
  O  O41  1  0.070220  0.735790  0.070410  1
  O  O42  1  0.570220  0.764210  0.570410  1
  O  O43  1  0.929780  0.264210  0.929590  1
  O  O44  1  0.429780  0.235790  0.429590  1
  O  O45  1  0.074460  0.796400  0.257770  1
  O  O46  1  0.574460  0.703600  0.757770  1
  O  O47  1  0.925540  0.203600  0.742230  1
  O  O48  1  0.425540  0.296400  0.242230  1
