# generated using pymatgen
data_BaLi(BO2)3
_symmetry_space_group_name_H-M   'P 1'
_cell_length_a   8.56408227
_cell_length_b   8.85412208
_cell_length_c   14.78605000
_cell_angle_alpha   82.00639496
_cell_angle_beta   73.28899949
_cell_angle_gamma   61.07782345
_symmetry_Int_Tables_number   1
_chemical_formula_structural   BaLi(BO2)3
_chemical_formula_sum   'Ba4 Li4 B12 O24'
_cell_volume   939.905589287
_cell_formula_units_Z   4
loop_
 _symmetry_equiv_pos_site_id
 _symmetry_equiv_pos_as_xyz
  1  'x, y, z'
loop_
 _atom_site_type_symbol
 _atom_site_label
 _atom_site_symmetry_multiplicity
 _atom_site_fract_x
 _atom_site_fract_y
 _atom_site_fract_z
 _atom_site_occupancy
  Ba  Ba1  1  0.694900  0.986000  0.130100  1
  Ba  Ba2  1  0.319100  0.986000  0.369900  1
  Ba  Ba3  1  0.305100  0.014000  0.869900  1
  Ba  Ba4  1  0.680900  0.014000  0.630100  1
  Li  Li5  1  0.007800  0.644600  0.377700  1
  Li  Li6  1  0.347600  0.644600  0.122300  1
  Li  Li7  1  0.992200  0.355400  0.622300  1
  Li  Li8  1  0.652400  0.355400  0.877700  1
  B  B9  1  0.499300  0.473400  0.340000  1
  B  B10  1  0.027300  0.473400  0.160000  1
  B  B11  1  0.500700  0.526600  0.660000  1
  B  B12  1  0.972700  0.526600  0.840000  1
  B  B13  1  0.709600  0.112200  0.372900  1
  B  B14  1  0.178200  0.112200  0.127100  1
  B  B15  1  0.290400  0.887800  0.627100  1
  B  B16  1  0.821800  0.887800  0.872900  1
  B  B17  1  0.186200  0.645000  0.588600  1
  B  B18  1  0.168800  0.645000  0.911400  1
  B  B19  1  0.813800  0.355000  0.411400  1
  B  B20  1  0.831200  0.355000  0.088600  1
  O  O21  1  0.842600  0.159400  0.410500  1
  O  O22  1  0.998000  0.159400  0.089500  1
  O  O23  1  0.157400  0.840600  0.589500  1
  O  O24  1  0.002000  0.840600  0.910500  1
  O  O25  1  0.049100  0.611600  0.557200  1
  O  O26  1  0.339300  0.611600  0.942800  1
  O  O27  1  0.950900  0.388400  0.442800  1
  O  O28  1  0.660700  0.388400  0.057200  1
  O  O29  1  0.639000  0.509000  0.377500  1
  O  O30  1  0.852000  0.509000  0.122500  1
  O  O31  1  0.361000  0.491000  0.622500  1
  O  O32  1  0.148000  0.491000  0.877500  1
  O  O33  1  0.731800  0.931200  0.376200  1
  O  O34  1  0.337000  0.931200  0.123800  1
  O  O35  1  0.268200  0.068800  0.623800  1
  O  O36  1  0.663000  0.068800  0.876200  1
  O  O37  1  0.544300  0.273000  0.333000  1
  O  O38  1  0.182700  0.273000  0.167000  1
  O  O39  1  0.455700  0.727000  0.667000  1
  O  O40  1  0.817300  0.727000  0.833000  1
  O  O41  1  0.330200  0.624400  0.311500  1
  O  O42  1  0.045400  0.624400  0.188500  1
  O  O43  1  0.669800  0.375600  0.688500  1
  O  O44  1  0.954600  0.375600  0.811500  1
