# generated using pymatgen
data_BaMgB2O5
_symmetry_space_group_name_H-M   'P 1'
_cell_length_a   13.47826400
_cell_length_b   6.50345900
_cell_length_c   14.22680700
_cell_angle_alpha   90.00000000
_cell_angle_beta   90.00000000
_cell_angle_gamma   90.00000000
_symmetry_Int_Tables_number   1
_chemical_formula_structural   BaMgB2O5
_chemical_formula_sum   'Ba8 Mg8 B16 O40'
_cell_volume   1247.0555665
_cell_formula_units_Z   8
loop_
 _symmetry_equiv_pos_site_id
 _symmetry_equiv_pos_as_xyz
  1  'x, y, z'
loop_
 _atom_site_type_symbol
 _atom_site_label
 _atom_site_symmetry_multiplicity
 _atom_site_fract_x
 _atom_site_fract_y
 _atom_site_fract_z
 _atom_site_occupancy
  Ba  Ba1  1  0.380600  0.113400  0.412600  1
  Ba  Ba2  1  0.880600  0.386600  0.587400  1
  Ba  Ba3  1  0.619400  0.613400  0.087400  1
  Ba  Ba4  1  0.119400  0.886600  0.912600  1
  Ba  Ba5  1  0.619400  0.886600  0.587400  1
  Ba  Ba6  1  0.119400  0.613400  0.412600  1
  Ba  Ba7  1  0.380600  0.386600  0.912600  1
  Ba  Ba8  1  0.880600  0.113400  0.087400  1
  Mg  Mg9  1  0.367200  0.871600  0.735500  1
  Mg  Mg10  1  0.867200  0.628400  0.264500  1
  Mg  Mg11  1  0.632800  0.371600  0.764500  1
  Mg  Mg12  1  0.132800  0.128400  0.235500  1
  Mg  Mg13  1  0.632800  0.128400  0.264500  1
  Mg  Mg14  1  0.132800  0.371600  0.735500  1
  Mg  Mg15  1  0.367200  0.628400  0.235500  1
  Mg  Mg16  1  0.867200  0.871600  0.764500  1
  B  B17  1  0.378400  0.623000  0.510900  1
  B  B18  1  0.878400  0.877000  0.489100  1
  B  B19  1  0.621600  0.123000  0.989100  1
  B  B20  1  0.121600  0.377000  0.010900  1
  B  B21  1  0.621600  0.377000  0.489100  1
  B  B22  1  0.121600  0.123000  0.510900  1
  B  B23  1  0.378400  0.877000  0.010900  1
  B  B24  1  0.878400  0.623000  0.989100  1
  B  B25  1  0.388700  0.373600  0.673300  1
  B  B26  1  0.888700  0.126400  0.326700  1
  B  B27  1  0.611300  0.873600  0.826700  1
  B  B28  1  0.111300  0.626400  0.173300  1
  B  B29  1  0.611300  0.626400  0.326700  1
  B  B30  1  0.111300  0.873600  0.673300  1
  B  B31  1  0.388700  0.126400  0.173300  1
  B  B32  1  0.888700  0.373600  0.826700  1
  O  O33  1  0.407500  0.824600  0.558500  1
  O  O34  1  0.907500  0.675400  0.441500  1
  O  O35  1  0.592500  0.324600  0.941500  1
  O  O36  1  0.092500  0.175400  0.058500  1
  O  O37  1  0.592500  0.175400  0.441500  1
  O  O38  1  0.092500  0.324600  0.558500  1
  O  O39  1  0.407500  0.675400  0.058500  1
  O  O40  1  0.907500  0.824600  0.941500  1
  O  O41  1  0.397800  0.408600  0.565200  1
  O  O42  1  0.897800  0.091400  0.434800  1
  O  O43  1  0.602200  0.908600  0.934800  1
  O  O44  1  0.102200  0.591400  0.065200  1
  O  O45  1  0.602200  0.591400  0.434800  1
  O  O46  1  0.102200  0.908600  0.565200  1
  O  O47  1  0.397800  0.091400  0.065200  1
  O  O48  1  0.897800  0.408600  0.934800  1
  O  O49  1  0.330200  0.896300  0.915100  1
  O  O50  1  0.830200  0.603700  0.084900  1
  O  O51  1  0.669800  0.396300  0.584900  1
  O  O52  1  0.169800  0.103700  0.415100  1
  O  O53  1  0.669800  0.103700  0.084900  1
  O  O54  1  0.169800  0.396300  0.915100  1
  O  O55  1  0.330200  0.603700  0.415100  1
  O  O56  1  0.830200  0.896300  0.584900  1
  O  O57  1  0.311400  0.497900  0.729100  1
  O  O58  1  0.811400  0.002100  0.270900  1
  O  O59  1  0.688600  0.997900  0.770900  1
  O  O60  1  0.188600  0.502100  0.229100  1
  O  O61  1  0.688600  0.502100  0.270900  1
  O  O62  1  0.188600  0.997900  0.729100  1
  O  O63  1  0.311400  0.002100  0.229100  1
  O  O64  1  0.811400  0.497900  0.770900  1
  O  O65  1  0.455300  0.214700  0.722000  1
  O  O66  1  0.955300  0.285300  0.278000  1
  O  O67  1  0.544700  0.714700  0.778000  1
  O  O68  1  0.044700  0.785300  0.222000  1
  O  O69  1  0.544700  0.785300  0.278000  1
  O  O70  1  0.044700  0.714700  0.722000  1
  O  O71  1  0.455300  0.285300  0.222000  1
  O  O72  1  0.955300  0.214700  0.778000  1
