# generated using pymatgen
data_BaMgAl4O8
_symmetry_space_group_name_H-M   'P 1'
_cell_length_a   10.96677826
_cell_length_b   10.96677826
_cell_length_c   10.96677826
_cell_angle_alpha   105.05571090
_cell_angle_beta   105.05571090
_cell_angle_gamma   118.71700065
_symmetry_Int_Tables_number   1
_chemical_formula_structural   BaMgAl4O8
_chemical_formula_sum   'Ba4 Mg4 Al16 O32'
_cell_volume   995.234456103
_cell_formula_units_Z   4
loop_
 _symmetry_equiv_pos_site_id
 _symmetry_equiv_pos_as_xyz
  1  'x, y, z'
loop_
 _atom_site_type_symbol
 _atom_site_label
 _atom_site_symmetry_multiplicity
 _atom_site_fract_x
 _atom_site_fract_y
 _atom_site_fract_z
 _atom_site_occupancy
  Ba  Ba1  1  0.125000  0.375000  0.750000  1
  Ba  Ba2  1  0.875000  0.625000  0.250000  1
  Ba  Ba3  1  0.625000  0.875000  0.750000  1
  Ba  Ba4  1  0.375000  0.125000  0.250000  1
  Mg  Mg5  1  0.879000  0.129000  0.258000  1
  Mg  Mg6  1  0.371000  0.621000  0.242000  1
  Mg  Mg7  1  0.121000  0.871000  0.742000  1
  Mg  Mg8  1  0.629000  0.379000  0.758000  1
  Al  Al9  1  0.617000  0.139000  0.006000  1
  Al  Al10  1  0.889000  0.867000  0.006000  1
  Al  Al11  1  0.361000  0.883000  0.494000  1
  Al  Al12  1  0.633000  0.611000  0.494000  1
  Al  Al13  1  0.383000  0.861000  0.994000  1
  Al  Al14  1  0.111000  0.133000  0.994000  1
  Al  Al15  1  0.639000  0.117000  0.506000  1
  Al  Al16  1  0.367000  0.389000  0.506000  1
  Al  Al17  1  0.531000  0.641000  -0.000000  1
  Al  Al18  1  0.969000  0.359000  -0.000000  1
  Al  Al19  1  0.859000  0.969000  0.500000  1
  Al  Al20  1  0.141000  0.531000  0.500000  1
  Al  Al21  1  0.469000  0.359000  -0.000000  1
  Al  Al22  1  0.031000  0.641000  0.000000  1
  Al  Al23  1  0.141000  0.031000  0.500000  1
  Al  Al24  1  0.859000  0.469000  0.500000  1
  O  O25  1  0.846000  0.160000  0.508000  1
  O  O26  1  0.162000  0.348000  0.508000  1
  O  O27  1  0.340000  0.654000  0.992000  1
  O  O28  1  0.152000  0.338000  0.992000  1
  O  O29  1  0.154000  0.840000  0.492000  1
  O  O30  1  0.838000  0.652000  0.492000  1
  O  O31  1  0.660000  0.346000  0.008000  1
  O  O32  1  0.848000  0.662000  0.008000  1
  O  O33  1  0.586000  0.592000  0.670000  1
  O  O34  1  0.584000  0.078000  0.670000  1
  O  O35  1  0.908000  0.914000  0.830000  1
  O  O36  1  0.422000  0.916000  0.830000  1
  O  O37  1  0.414000  0.408000  0.330000  1
  O  O38  1  0.416000  0.922000  0.330000  1
  O  O39  1  0.092000  0.086000  0.170000  1
  O  O40  1  0.578000  0.084000  0.170000  1
  O  O41  1  0.816000  0.152000  -0.000000  1
  O  O42  1  0.684000  0.848000  0.000000  1
  O  O43  1  0.348000  0.684000  0.500000  1
  O  O44  1  0.652000  0.816000  0.500000  1
  O  O45  1  0.184000  0.848000  -0.000000  1
  O  O46  1  0.316000  0.152000  0.000000  1
  O  O47  1  0.652000  0.316000  0.500000  1
  O  O48  1  0.348000  0.184000  0.500000  1
  O  O49  1  0.916000  0.420000  0.328000  1
  O  O50  1  0.912000  0.908000  0.328000  1
  O  O51  1  0.080000  0.584000  0.172000  1
  O  O52  1  0.592000  0.588000  0.172000  1
  O  O53  1  0.084000  0.580000  0.672000  1
  O  O54  1  0.088000  0.092000  0.672000  1
  O  O55  1  0.920000  0.416000  0.828000  1
  O  O56  1  0.408000  0.412000  0.828000  1
