# generated using pymatgen
data_BaMgAl2O5
_symmetry_space_group_name_H-M   'P 1'
_cell_length_a   5.91240943
_cell_length_b   16.48256100
_cell_length_c   9.41311100
_cell_angle_alpha   90.00000000
_cell_angle_beta   90.90800469
_cell_angle_gamma   90.00000000
_symmetry_Int_Tables_number   1
_chemical_formula_structural   BaMgAl2O5
_chemical_formula_sum   'Ba4 Mg4 Al8 O20'
_cell_volume   917.208000358
_cell_formula_units_Z   4
loop_
 _symmetry_equiv_pos_site_id
 _symmetry_equiv_pos_as_xyz
  1  'x, y, z'
loop_
 _atom_site_type_symbol
 _atom_site_label
 _atom_site_symmetry_multiplicity
 _atom_site_fract_x
 _atom_site_fract_y
 _atom_site_fract_z
 _atom_site_occupancy
  Ba  Ba1  1  0.277100  0.303460  0.717200  1
  Ba  Ba2  1  0.722900  0.803460  0.782800  1
  Ba  Ba3  1  0.722900  0.696540  0.282800  1
  Ba  Ba4  1  0.277100  0.196540  0.217200  1
  Mg  Mg5  1  0.770000  0.092000  0.964100  1
  Mg  Mg6  1  0.230000  0.592000  0.535900  1
  Mg  Mg7  1  0.230000  0.908000  0.035900  1
  Mg  Mg8  1  0.770000  0.408000  0.464100  1
  Al  Al9  1  0.298500  0.454800  0.212000  1
  Al  Al10  1  0.701500  0.954800  0.288000  1
  Al  Al11  1  0.701500  0.545200  0.788000  1
  Al  Al12  1  0.298500  0.045200  0.712000  1
  Al  Al13  1  0.794300  0.368600  0.020700  1
  Al  Al14  1  0.205700  0.868600  0.479300  1
  Al  Al15  1  0.205700  0.631400  0.979300  1
  Al  Al16  1  0.794300  0.131400  0.520700  1
  O  O17  1  0.241000  0.432100  0.406100  1
  O  O18  1  0.759000  0.932100  0.093900  1
  O  O19  1  0.759000  0.567900  0.593900  1
  O  O20  1  0.241000  0.067900  0.906100  1
  O  O21  1  0.624000  0.427500  0.166700  1
  O  O22  1  0.376000  0.927500  0.333300  1
  O  O23  1  0.376000  0.572500  0.833300  1
  O  O24  1  0.624000  0.072500  0.666700  1
  O  O25  1  0.255000  0.570900  0.168700  1
  O  O26  1  0.745000  0.070900  0.331300  1
  O  O27  1  0.745000  0.429100  0.831300  1
  O  O28  1  0.255000  0.929100  0.668700  1
  O  O29  1  0.119000  0.389800  0.074700  1
  O  O30  1  0.881000  0.889800  0.425300  1
  O  O31  1  0.881000  0.610200  0.925300  1
  O  O32  1  0.119000  0.110200  0.574700  1
  O  O33  1  0.727000  0.257900  0.000100  1
  O  O34  1  0.273000  0.757900  0.499900  1
  O  O35  1  0.273000  0.742100  0.999900  1
  O  O36  1  0.727000  0.242100  0.500100  1
