# generated using pymatgen
data_BaYBO4
_symmetry_space_group_name_H-M   'P 1'
_cell_length_a   22.55890134
_cell_length_b   6.70736600
_cell_length_c   11.38406100
_cell_angle_alpha   90.00000000
_cell_angle_beta   90.14000066
_cell_angle_gamma   90.00000000
_symmetry_Int_Tables_number   1
_chemical_formula_structural   BaYBO4
_chemical_formula_sum   'Ba8 Y8 B8 O32'
_cell_volume   1722.52632459
_cell_formula_units_Z   8
loop_
 _symmetry_equiv_pos_site_id
 _symmetry_equiv_pos_as_xyz
  1  'x, y, z'
loop_
 _atom_site_type_symbol
 _atom_site_label
 _atom_site_symmetry_multiplicity
 _atom_site_fract_x
 _atom_site_fract_y
 _atom_site_fract_z
 _atom_site_occupancy
  Ba  Ba1  1  0.502990  0.257300  0.204750  1
  Ba  Ba2  1  0.997010  0.757300  0.795250  1
  Ba  Ba3  1  0.497010  0.742700  0.795250  1
  Ba  Ba4  1  0.002990  0.242700  0.204750  1
  Ba  Ba5  1  0.750250  0.778200  0.690460  1
  Ba  Ba6  1  0.749750  0.278200  0.309540  1
  Ba  Ba7  1  0.249750  0.221800  0.309540  1
  Ba  Ba8  1  0.250250  0.721800  0.690460  1
  Y  Y9  1  0.666100  0.778500  0.088700  1
  Y  Y10  1  0.833900  0.278500  0.911300  1
  Y  Y11  1  0.333900  0.221500  0.911300  1
  Y  Y12  1  0.166100  0.721500  0.088700  1
  Y  Y13  1  0.587380  0.246400  0.583100  1
  Y  Y14  1  0.912620  0.746400  0.416900  1
  Y  Y15  1  0.412620  0.753600  0.416900  1
  Y  Y16  1  0.087380  0.253600  0.583100  1
  B  B17  1  0.845300  0.776800  0.092500  1
  B  B18  1  0.654700  0.276800  0.907500  1
  B  B19  1  0.154700  0.223200  0.907500  1
  B  B20  1  0.345300  0.723200  0.092500  1
  B  B21  1  0.596500  0.747300  0.418100  1
  B  B22  1  0.903500  0.247300  0.581900  1
  B  B23  1  0.403500  0.252700  0.581900  1
  B  B24  1  0.096500  0.752700  0.418100  1
  O  O25  1  0.103700  0.314000  0.788000  1
  O  O26  1  0.396300  0.814000  0.212000  1
  O  O27  1  0.896300  0.686000  0.212000  1
  O  O28  1  0.603700  0.186000  0.788000  1
  O  O29  1  0.870100  0.495000  0.539900  1
  O  O30  1  0.629900  0.995000  0.460100  1
  O  O31  1  0.129900  0.505000  0.460100  1
  O  O32  1  0.370100  0.005000  0.539900  1
  O  O33  1  0.482800  0.249000  0.563800  1
  O  O34  1  0.017200  0.749000  0.436200  1
  O  O35  1  0.517200  0.751000  0.436200  1
  O  O36  1  0.982800  0.251000  0.563800  1
  O  O37  1  0.386400  0.312000  0.739500  1
  O  O38  1  0.113600  0.812000  0.260500  1
  O  O39  1  0.613600  0.688000  0.260500  1
  O  O40  1  0.886400  0.188000  0.739500  1
  O  O41  1  0.768100  0.758000  0.146300  1
  O  O42  1  0.731900  0.258000  0.853700  1
  O  O43  1  0.231900  0.242000  0.853700  1
  O  O44  1  0.268100  0.742000  0.146300  1
  O  O45  1  0.864700  0.043000  0.056800  1
  O  O46  1  0.635300  0.543000  0.943200  1
  O  O47  1  0.135300  0.957000  0.943200  1
  O  O48  1  0.364700  0.457000  0.056800  1
  O  O49  1  0.856600  0.656000  0.957500  1
  O  O50  1  0.643400  0.156000  0.042500  1
  O  O51  1  0.143400  0.344000  0.042500  1
  O  O52  1  0.356600  0.844000  0.957500  1
  O  O53  1  0.370000  0.450000  0.485500  1
  O  O54  1  0.130000  0.950000  0.514500  1
  O  O55  1  0.630000  0.550000  0.514500  1
  O  O56  1  0.870000  0.050000  0.485500  1
