# generated using pymatgen
data_Ca2YPO6
_symmetry_space_group_name_H-M   'P 1'
_cell_length_a   6.25368600
_cell_length_b   6.25368605
_cell_length_c   13.04845500
_cell_angle_alpha   90.00000000
_cell_angle_beta   90.00000000
_cell_angle_gamma   119.99999974
_symmetry_Int_Tables_number   1
_chemical_formula_structural   Ca2YPO6
_chemical_formula_sum   'Ca4 Y2 P2 O12'
_cell_volume   441.938534423
_cell_formula_units_Z   2
loop_
 _symmetry_equiv_pos_site_id
 _symmetry_equiv_pos_as_xyz
  1  'x, y, z'
loop_
 _atom_site_type_symbol
 _atom_site_label
 _atom_site_symmetry_multiplicity
 _atom_site_fract_x
 _atom_site_fract_y
 _atom_site_fract_z
 _atom_site_occupancy
  Ca  Ca1  1  0.666600  0.333300  0.538300  1
  Ca  Ca2  1  0.333400  0.666700  0.038300  1
  Ca  Ca3  1  0.333400  0.666700  0.461700  1
  Ca  Ca4  1  0.666600  0.333300  0.961700  1
  Y  Y5  1  0.000000  0.000000  0.250000  1
  Y  Y6  1  0.000000  0.000000  0.750000  1
  P  P7  1  0.666600  0.333300  0.250000  1
  P  P8  1  0.333400  0.666700  0.750000  1
  O  O9  1  0.662600  0.716200  0.851380  1
  O  O10  1  0.053600  0.337400  0.851380  1
  O  O11  1  0.283800  0.946400  0.851380  1
  O  O12  1  0.337400  0.053600  0.351380  1
  O  O13  1  0.716200  0.662600  0.351380  1
  O  O14  1  0.946400  0.283800  0.351380  1
  O  O15  1  0.337400  0.283800  0.148620  1
  O  O16  1  0.946400  0.662600  0.148620  1
  O  O17  1  0.716200  0.053600  0.148620  1
  O  O18  1  0.662600  0.946400  0.648620  1
  O  O19  1  0.283800  0.337400  0.648620  1
  O  O20  1  0.053600  0.716200  0.648620  1
