# generated using pymatgen
data_Ca3Y(PO4)3
_symmetry_space_group_name_H-M   'P 1'
_cell_length_a   10.75369000
_cell_length_b   15.39264004
_cell_length_c   10.84708300
_cell_angle_alpha   106.15123316
_cell_angle_beta   90.00000000
_cell_angle_gamma   110.44528392
_symmetry_Int_Tables_number   1
_chemical_formula_structural   Ca3Y(PO4)3
_chemical_formula_sum   'Ca12 Y4 P12 O48'
_cell_volume   1606.5394433
_cell_formula_units_Z   4
loop_
 _symmetry_equiv_pos_site_id
 _symmetry_equiv_pos_as_xyz
  1  'x, y, z'
loop_
 _atom_site_type_symbol
 _atom_site_label
 _atom_site_symmetry_multiplicity
 _atom_site_fract_x
 _atom_site_fract_y
 _atom_site_fract_z
 _atom_site_occupancy
  Ca  Ca1  1  0.971310  0.106220  0.145830  1
  Ca  Ca2  1  0.865090  0.893780  0.354170  1
  Ca  Ca3  1  0.028690  0.893780  0.854170  1
  Ca  Ca4  1  0.134910  0.106220  0.645830  1
  Ca  Ca5  1  0.703500  0.309200  0.232810  1
  Ca  Ca6  1  0.394300  0.690800  0.267190  1
  Ca  Ca7  1  0.296500  0.690800  0.767190  1
  Ca  Ca8  1  0.605700  0.309200  0.732810  1
  Ca  Ca9  1  0.000000  0.500000  0.000000  1
  Ca  Ca10  1  0.500000  0.500000  0.500000  1
  Ca  Ca11  1  0.409400  1.000000  0.250000  1
  Ca  Ca12  1  0.590600  0.000000  0.750000  1
  Y  Y13  1  0.961660  0.659680  0.426410  1
  Y  Y14  1  0.301980  0.340320  0.073590  1
  Y  Y15  1  0.038340  0.340320  0.573590  1
  Y  Y16  1  0.698020  0.659680  0.926410  1
  P  P17  1  0.937080  0.233360  0.886400  1
  P  P18  1  0.703720  0.766640  0.613600  1
  P  P19  1  0.062920  0.766640  0.113600  1
  P  P20  1  0.296280  0.233360  0.386400  1
  P  P21  1  0.332460  0.457320  0.852800  1
  P  P22  1  0.875140  0.542680  0.647200  1
  P  P23  1  0.667540  0.542680  0.147200  1
  P  P24  1  0.124860  0.457320  0.352800  1
  P  P25  1  0.618800  0.847000  0.060300  1
  P  P26  1  0.771800  0.153000  0.439700  1
  P  P27  1  0.381200  0.153000  0.939700  1
  P  P28  1  0.228200  0.847000  0.560300  1
  O  O29  1  0.778600  0.845200  0.044600  1
  O  O30  1  0.933400  0.154800  0.455400  1
  O  O31  1  0.221400  0.154800  0.955400  1
  O  O32  1  0.066600  0.845200  0.544600  1
  O  O33  1  0.517900  0.726200  0.984700  1
  O  O34  1  0.791700  0.273800  0.515300  1
  O  O35  1  0.482100  0.273800  0.015300  1
  O  O36  1  0.208300  0.726200  0.484700  1
  O  O37  1  0.909100  0.114200  0.855400  1
  O  O38  1  0.794900  0.885800  0.644600  1
  O  O39  1  0.090900  0.885800  0.144600  1
  O  O40  1  0.205100  0.114200  0.355400  1
  O  O41  1  0.991400  0.268800  0.751900  1
  O  O42  1  0.722600  0.731200  0.748100  1
  O  O43  1  0.008600  0.731200  0.248100  1
  O  O44  1  0.277400  0.268800  0.251900  1
  O  O45  1  0.317700  0.498800  0.013300  1
  O  O46  1  0.818900  0.501200  0.486700  1
  O  O47  1  0.682300  0.501200  0.986700  1
  O  O48  1  0.181100  0.498800  0.513300  1
  O  O49  1  0.329700  0.342600  0.834600  1
  O  O50  1  0.987100  0.657400  0.665400  1
  O  O51  1  0.670300  0.657400  0.165400  1
  O  O52  1  0.012900  0.342600  0.334600  1
  O  O53  1  0.597700  0.877000  0.218600  1
  O  O54  1  0.720700  0.123000  0.281400  1
  O  O55  1  0.402300  0.123000  0.781400  1
  O  O56  1  0.279300  0.877000  0.718600  1
  O  O57  1  0.061900  0.298600  0.013900  1
  O  O58  1  0.763300  0.701400  0.486100  1
  O  O59  1  0.938100  0.701400  0.986100  1
  O  O60  1  0.236700  0.298600  0.513900  1
  O  O61  1  0.584400  0.920800  0.991000  1
  O  O62  1  0.663600  0.079200  0.509000  1
  O  O63  1  0.415600  0.079200  0.009000  1
  O  O64  1  0.336400  0.920800  0.491000  1
  O  O65  1  0.478700  0.527400  0.810100  1
  O  O66  1  0.951300  0.472600  0.689900  1
  O  O67  1  0.521300  0.472600  0.189900  1
  O  O68  1  0.048700  0.527400  0.310100  1
  O  O69  1  0.798000  0.256800  0.925000  1
  O  O70  1  0.541200  0.743200  0.575000  1
  O  O71  1  0.202000  0.743200  0.075000  1
  O  O72  1  0.458800  0.256800  0.425000  1
  O  O73  1  0.201700  0.458000  0.764700  1
  O  O74  1  0.743700  0.542000  0.735300  1
  O  O75  1  0.798300  0.542000  0.235300  1
  O  O76  1  0.256300  0.458000  0.264700  1
