# generated using pymatgen
data_Ca4YPO8
_symmetry_space_group_name_H-M   'P 1'
_cell_length_a   14.43102363
_cell_length_b   7.20935800
_cell_length_c   18.15834100
_cell_angle_alpha   90.00000000
_cell_angle_beta   121.55417019
_cell_angle_gamma   90.00000000
_symmetry_Int_Tables_number   1
_chemical_formula_structural   Ca4YPO8
_chemical_formula_sum   'Ca16 Y4 P4 O32'
_cell_volume   1609.84402156
_cell_formula_units_Z   4
loop_
 _symmetry_equiv_pos_site_id
 _symmetry_equiv_pos_as_xyz
  1  'x, y, z'
loop_
 _atom_site_type_symbol
 _atom_site_label
 _atom_site_symmetry_multiplicity
 _atom_site_fract_x
 _atom_site_fract_y
 _atom_site_fract_z
 _atom_site_occupancy
  Ca  Ca1  1  0.070090  0.252740  0.600050  1
  Ca  Ca2  1  0.929910  0.752740  0.899950  1
  Ca  Ca3  1  0.929910  0.747260  0.399950  1
  Ca  Ca4  1  0.070090  0.247260  0.100050  1
  Ca  Ca5  1  0.757420  0.229990  0.623250  1
  Ca  Ca6  1  0.242580  0.729990  0.876750  1
  Ca  Ca7  1  0.242580  0.770010  0.376750  1
  Ca  Ca8  1  0.757420  0.270010  0.123250  1
  Ca  Ca9  1  0.605970  0.726910  0.931230  1
  Ca  Ca10  1  0.394030  0.226910  0.568770  1
  Ca  Ca11  1  0.394030  0.273090  0.068770  1
  Ca  Ca12  1  0.605970  0.773090  0.431230  1
  Ca  Ca13  1  0.709830  0.269130  0.359880  1
  Ca  Ca14  1  0.290170  0.769130  0.140120  1
  Ca  Ca15  1  0.290170  0.730870  0.640120  1
  Ca  Ca16  1  0.709830  0.230870  0.859880  1
  Y  Y17  1  0.610620  0.790130  0.171310  1
  Y  Y18  1  0.389380  0.290130  0.328690  1
  Y  Y19  1  0.389380  0.209870  0.828690  1
  Y  Y20  1  0.610620  0.709870  0.671310  1
  P  P21  1  0.924580  0.748270  0.131570  1
  P  P22  1  0.075420  0.248270  0.368430  1
  P  P23  1  0.075420  0.251730  0.868430  1
  P  P24  1  0.924580  0.751730  0.631570  1
  O  O25  1  0.385060  0.879490  0.823020  1
  O  O26  1  0.614940  0.379490  0.676980  1
  O  O27  1  0.614940  0.120510  0.176980  1
  O  O28  1  0.385060  0.620510  0.323020  1
  O  O29  1  0.319800  0.322230  0.686750  1
  O  O30  1  0.680200  0.822230  0.813250  1
  O  O31  1  0.680200  0.677770  0.313250  1
  O  O32  1  0.319800  0.177770  0.186750  1
  O  O33  1  0.568450  0.315770  0.931240  1
  O  O34  1  0.431550  0.815770  0.568760  1
  O  O35  1  0.431550  0.684230  0.068760  1
  O  O36  1  0.568450  0.184230  0.431240  1
  O  O37  1  0.735560  0.686380  0.127950  1
  O  O38  1  0.264440  0.186380  0.372050  1
  O  O39  1  0.264440  0.313620  0.872050  1
  O  O40  1  0.735560  0.813620  0.627950  1
  O  O41  1  0.165260  0.514570  0.463660  1
  O  O42  1  0.834740  0.014570  0.036340  1
  O  O43  1  0.834740  0.485430  0.536340  1
  O  O44  1  0.165260  0.985430  0.963660  1
  O  O45  1  0.855620  0.525290  0.007000  1
  O  O46  1  0.144380  0.025290  0.493000  1
  O  O47  1  0.144380  0.474710  0.993000  1
  O  O48  1  0.855620  0.974710  0.507000  1
  O  O49  1  0.010660  0.434750  0.225180  1
  O  O50  1  0.989340  0.934750  0.274820  1
  O  O51  1  0.989340  0.565250  0.774820  1
  O  O52  1  0.010660  0.065250  0.725180  1
  O  O53  1  0.093290  0.677090  0.639420  1
  O  O54  1  0.906710  0.177090  0.860580  1
  O  O55  1  0.906710  0.322910  0.360580  1
  O  O56  1  0.093290  0.822910  0.139420  1
