# generated using pymatgen
data_CaY2(BO2)8
_symmetry_space_group_name_H-M   'P 1'
_cell_length_a   10.19334800
_cell_length_b   7.47617300
_cell_length_c   12.39158100
_cell_angle_alpha   90.00000000
_cell_angle_beta   90.00000000
_cell_angle_gamma   90.00000000
_symmetry_Int_Tables_number   1
_chemical_formula_structural   CaY2(BO2)8
_chemical_formula_sum   'Ca2 Y4 B16 O32'
_cell_volume   944.32810171
_cell_formula_units_Z   2
loop_
 _symmetry_equiv_pos_site_id
 _symmetry_equiv_pos_as_xyz
  1  'x, y, z'
loop_
 _atom_site_type_symbol
 _atom_site_label
 _atom_site_symmetry_multiplicity
 _atom_site_fract_x
 _atom_site_fract_y
 _atom_site_fract_z
 _atom_site_occupancy
  Ca  Ca1  1  0.500000  0.500000  0.500000  1
  Ca  Ca2  1  0.000000  0.000000  0.500000  1
  Y  Y3  1  0.500000  0.500000  0.182090  1
  Y  Y4  1  0.000000  0.000000  0.817910  1
  Y  Y5  1  0.500000  0.500000  0.817910  1
  Y  Y6  1  0.000000  0.000000  0.182090  1
  B  B7  1  0.681700  0.112800  0.000000  1
  B  B8  1  0.318300  0.887200  0.000000  1
  B  B9  1  0.181700  0.387200  0.000000  1
  B  B10  1  0.818300  0.612800  0.000000  1
  B  B11  1  0.807700  0.380000  0.379000  1
  B  B12  1  0.192300  0.620000  0.379000  1
  B  B13  1  0.307700  0.120000  0.621000  1
  B  B14  1  0.692300  0.880000  0.621000  1
  B  B15  1  0.192300  0.620000  0.621000  1
  B  B16  1  0.807700  0.380000  0.621000  1
  B  B17  1  0.692300  0.880000  0.379000  1
  B  B18  1  0.307700  0.120000  0.379000  1
  B  B19  1  0.500000  0.000000  0.191400  1
  B  B20  1  0.000000  0.500000  0.808600  1
  B  B21  1  0.500000  0.000000  0.808600  1
  B  B22  1  0.000000  0.500000  0.191400  1
  O  O23  1  0.905600  0.346400  0.270500  1
  O  O24  1  0.094400  0.653600  0.270500  1
  O  O25  1  0.405600  0.153600  0.729500  1
  O  O26  1  0.594400  0.846400  0.729500  1
  O  O27  1  0.094400  0.653600  0.729500  1
  O  O28  1  0.905600  0.346400  0.729500  1
  O  O29  1  0.594400  0.846400  0.270500  1
  O  O30  1  0.405600  0.153600  0.270500  1
  O  O31  1  0.656000  0.435800  0.360200  1
  O  O32  1  0.344000  0.564200  0.360200  1
  O  O33  1  0.156000  0.064200  0.639800  1
  O  O34  1  0.844000  0.935800  0.639800  1
  O  O35  1  0.344000  0.564200  0.639800  1
  O  O36  1  0.656000  0.435800  0.639800  1
  O  O37  1  0.844000  0.935800  0.360200  1
  O  O38  1  0.156000  0.064200  0.360200  1
  O  O39  1  0.598900  0.147000  0.116600  1
  O  O40  1  0.401100  0.853000  0.116600  1
  O  O41  1  0.098900  0.353000  0.883400  1
  O  O42  1  0.901100  0.647000  0.883400  1
  O  O43  1  0.401100  0.853000  0.883400  1
  O  O44  1  0.598900  0.147000  0.883400  1
  O  O45  1  0.901100  0.647000  0.116600  1
  O  O46  1  0.098900  0.353000  0.116600  1
  O  O47  1  0.876100  0.348100  0.500000  1
  O  O48  1  0.123900  0.651900  0.500000  1
  O  O49  1  0.376100  0.151900  0.500000  1
  O  O50  1  0.623900  0.848100  0.500000  1
  O  O51  1  0.836100  0.060300  0.000000  1
  O  O52  1  0.163900  0.939700  0.000000  1
  O  O53  1  0.336100  0.439700  0.000000  1
  O  O54  1  0.663900  0.560300  0.000000  1
