# generated using pymatgen
data_Li4P2S7
_symmetry_space_group_name_H-M   'P 1'
_cell_length_a   6.50751878
_cell_length_b   17.46817600
_cell_length_c   11.82861700
_cell_angle_alpha   90.00000000
_cell_angle_beta   123.31095311
_cell_angle_gamma   90.00000000
_symmetry_Int_Tables_number   1
_chemical_formula_structural   Li4P2S7
_chemical_formula_sum   'Li16 P8 S28'
_cell_volume   1123.69540112
_cell_formula_units_Z   4
loop_
 _symmetry_equiv_pos_site_id
 _symmetry_equiv_pos_as_xyz
  1  'x, y, z'
loop_
 _atom_site_type_symbol
 _atom_site_label
 _atom_site_symmetry_multiplicity
 _atom_site_fract_x
 _atom_site_fract_y
 _atom_site_fract_z
 _atom_site_occupancy
  Li  Li1  1  0.853769  0.783089  0.051468  1
  Li  Li2  1  0.742551  0.174905  0.545775  1
  Li  Li3  1  0.739002  0.941922  0.559052  1
  Li  Li4  1  0.102047  0.606399  0.431608  1
  Li  Li5  1  0.739002  0.558078  0.059052  1
  Li  Li6  1  0.853769  0.716911  0.551468  1
  Li  Li7  1  0.257449  0.825095  0.454225  1
  Li  Li8  1  0.897953  0.106399  0.068392  1
  Li  Li9  1  0.260998  0.058078  0.440948  1
  Li  Li10  1  0.257449  0.674905  0.954225  1
  Li  Li11  1  0.897953  0.393601  0.568392  1
  Li  Li12  1  0.146231  0.283089  0.448532  1
  Li  Li13  1  0.102047  0.893601  0.931608  1
  Li  Li14  1  0.742551  0.325095  0.045775  1
  Li  Li15  1  0.146231  0.216911  0.948532  1
  Li  Li16  1  0.260998  0.441922  0.940948  1
  P  P17  1  0.563704  0.051188  0.236656  1
  P  P18  1  0.436296  0.551188  0.263344  1
  P  P19  1  0.443068  0.333537  0.261457  1
  P  P20  1  0.556932  0.666463  0.738543  1
  P  P21  1  0.436296  0.948812  0.763344  1
  P  P22  1  0.563704  0.448812  0.736656  1
  P  P23  1  0.556932  0.833537  0.238543  1
  P  P24  1  0.443068  0.166463  0.761457  1
  S  S25  1  0.858662  0.430729  0.746288  1
  S  S26  1  0.720562  0.280345  0.403799  1
  S  S27  1  0.141338  0.569271  0.253712  1
  S  S28  1  0.705253  0.889995  0.893403  1
  S  S29  1  0.279438  0.719655  0.596201  1
  S  S30  1  0.452494  0.557718  0.666006  1
  S  S31  1  0.279438  0.780345  0.096201  1
  S  S32  1  0.147626  0.189220  0.748193  1
  S  S33  1  0.852374  0.810780  0.251807  1
  S  S34  1  0.294747  0.389995  0.606597  1
  S  S35  1  0.547506  0.442282  0.333994  1
  S  S36  1  0.409362  0.170847  0.591193  1
  S  S37  1  0.389487  0.946681  0.589231  1
  S  S38  1  0.705253  0.610005  0.393403  1
  S  S39  1  0.610513  0.053319  0.410769  1
  S  S40  1  0.294747  0.110005  0.106597  1
  S  S41  1  0.590638  0.670847  0.908807  1
  S  S42  1  0.590638  0.829153  0.408807  1
  S  S43  1  0.409362  0.329153  0.091193  1
  S  S44  1  0.141338  0.930729  0.753712  1
  S  S45  1  0.389487  0.553319  0.089231  1
  S  S46  1  0.858662  0.069271  0.246288  1
  S  S47  1  0.852374  0.689220  0.751807  1
  S  S48  1  0.720562  0.219655  0.903799  1
  S  S49  1  0.610513  0.446681  0.910769  1
  S  S50  1  0.547506  0.057718  0.833994  1
  S  S51  1  0.452494  0.942282  0.166006  1
  S  S52  1  0.147626  0.310780  0.248193  1
