# generated using pymatgen
data_LiFePS4
_symmetry_space_group_name_H-M   'P 1'
_cell_length_a   5.88467600
_cell_length_b   7.53839000
_cell_length_c   12.94178800
_cell_angle_alpha   90.00000000
_cell_angle_beta   90.00000000
_cell_angle_gamma   90.00000000
_symmetry_Int_Tables_number   1
_chemical_formula_structural   LiFePS4
_chemical_formula_sum   'Li4 Fe4 P4 S16'
_cell_volume   574.110433726
_cell_formula_units_Z   4
loop_
 _symmetry_equiv_pos_site_id
 _symmetry_equiv_pos_as_xyz
  1  'x, y, z'
loop_
 _atom_site_type_symbol
 _atom_site_label
 _atom_site_symmetry_multiplicity
 _atom_site_fract_x
 _atom_site_fract_y
 _atom_site_fract_z
 _atom_site_occupancy
  Li  Li1  1  0.000000  0.000000  0.000000  1
  Li  Li2  1  0.500000  0.500000  0.500000  1
  Li  Li3  1  0.500000  0.000000  0.500000  1
  Li  Li4  1  0.000000  0.500000  0.000000  1
  Fe  Fe5  1  0.476320  0.750000  0.781585  1
  Fe  Fe6  1  0.976320  0.250000  0.718415  1
  Fe  Fe7  1  0.023680  0.750000  0.281585  1
  Fe  Fe8  1  0.523680  0.250000  0.218415  1
  P  P9  1  0.580982  0.750000  0.094702  1
  P  P10  1  0.080982  0.250000  0.405298  1
  P  P11  1  0.919018  0.750000  0.594702  1
  P  P12  1  0.419018  0.250000  0.905298  1
  S  S13  1  0.257443  0.750000  0.096655  1
  S  S14  1  0.286160  0.452812  0.834386  1
  S  S15  1  0.286160  0.047188  0.834386  1
  S  S16  1  0.742557  0.250000  0.903345  1
  S  S17  1  0.293857  0.250000  0.042717  1
  S  S18  1  0.757443  0.250000  0.403345  1
  S  S19  1  0.713840  0.952812  0.165614  1
  S  S20  1  0.786160  0.547188  0.665614  1
  S  S21  1  0.213840  0.452812  0.334386  1
  S  S22  1  0.213840  0.047188  0.334386  1
  S  S23  1  0.706143  0.750000  0.957283  1
  S  S24  1  0.793857  0.750000  0.457283  1
  S  S25  1  0.206143  0.250000  0.542717  1
  S  S26  1  0.242557  0.750000  0.596655  1
  S  S27  1  0.786160  0.952812  0.665614  1
  S  S28  1  0.713840  0.547188  0.165614  1
