# generated using pymatgen
data_Sr3Y3Al5O15
_symmetry_space_group_name_H-M   'P 1'
_cell_length_a   14.82159100
_cell_length_b   14.82159046
_cell_length_c   9.01758500
_cell_angle_alpha   90.00000000
_cell_angle_beta   90.00000000
_cell_angle_gamma   119.99999896
_symmetry_Int_Tables_number   1
_chemical_formula_structural   Sr3Y3Al5O15
_chemical_formula_sum   'Sr6 Y6 Al10 O30'
_cell_volume   1715.57818339
_cell_formula_units_Z   2
loop_
 _symmetry_equiv_pos_site_id
 _symmetry_equiv_pos_as_xyz
  1  'x, y, z'
loop_
 _atom_site_type_symbol
 _atom_site_label
 _atom_site_symmetry_multiplicity
 _atom_site_fract_x
 _atom_site_fract_y
 _atom_site_fract_z
 _atom_site_occupancy
  Sr  Sr1  1  0.472900  0.945800  0.736600  1
  Sr  Sr2  1  0.054200  0.527100  0.736600  1
  Sr  Sr3  1  0.472900  0.527100  0.736600  1
  Sr  Sr4  1  0.527100  0.054200  0.236600  1
  Sr  Sr5  1  0.945800  0.472900  0.236600  1
  Sr  Sr6  1  0.527100  0.472900  0.236600  1
  Y  Y7  1  0.156000  0.312000  0.417400  1
  Y  Y8  1  0.688000  0.844000  0.417400  1
  Y  Y9  1  0.156000  0.844000  0.417400  1
  Y  Y10  1  0.844000  0.688000  0.917400  1
  Y  Y11  1  0.312000  0.156000  0.917400  1
  Y  Y12  1  0.844000  0.156000  0.917400  1
  Al  Al13  1  0.000000  0.000000  0.252000  1
  Al  Al14  1  0.000000  0.000000  0.752000  1
  Al  Al15  1  0.196700  0.393400  0.961400  1
  Al  Al16  1  0.606600  0.803300  0.961400  1
  Al  Al17  1  0.196700  0.803300  0.961400  1
  Al  Al18  1  0.803300  0.606600  0.461400  1
  Al  Al19  1  0.393400  0.196700  0.461400  1
  Al  Al20  1  0.803300  0.196700  0.461400  1
  Al  Al21  1  0.666700  0.333400  0.893300  1
  Al  Al22  1  0.333300  0.666600  0.393300  1
  O  O23  1  0.073100  0.146200  0.756600  1
  O  O24  1  0.853800  0.926900  0.756600  1
  O  O25  1  0.073100  0.926900  0.756600  1
  O  O26  1  0.926900  0.853800  0.256600  1
  O  O27  1  0.146200  0.073100  0.256600  1
  O  O28  1  0.926900  0.073100  0.256600  1
  O  O29  1  0.225000  0.450000  0.769100  1
  O  O30  1  0.550000  0.775000  0.769100  1
  O  O31  1  0.225000  0.775000  0.769100  1
  O  O32  1  0.775000  0.550000  0.269100  1
  O  O33  1  0.450000  0.225000  0.269100  1
  O  O34  1  0.775000  0.225000  0.269100  1
  O  O35  1  0.591300  0.182600  0.899300  1
  O  O36  1  0.817400  0.408700  0.899300  1
  O  O37  1  0.591300  0.408700  0.899300  1
  O  O38  1  0.408700  0.817400  0.399300  1
  O  O39  1  0.182600  0.591300  0.399300  1
  O  O40  1  0.408700  0.591300  0.399300  1
  O  O41  1  0.626200  0.693000  0.051600  1
  O  O42  1  0.307000  0.933200  0.051600  1
  O  O43  1  0.066800  0.373800  0.051600  1
  O  O44  1  0.307000  0.373800  0.051600  1
  O  O45  1  0.066800  0.693000  0.051600  1
  O  O46  1  0.626200  0.933200  0.051600  1
  O  O47  1  0.373800  0.307000  0.551600  1
  O  O48  1  0.693000  0.066800  0.551600  1
  O  O49  1  0.933200  0.626200  0.551600  1
  O  O50  1  0.693000  0.626200  0.551600  1
  O  O51  1  0.933200  0.307000  0.551600  1
  O  O52  1  0.373800  0.066800  0.551600  1
