# generated using pymatgen
data_SrYAlO4
_symmetry_space_group_name_H-M   'P 1'
_cell_length_a   13.57879800
_cell_length_b   6.15549600
_cell_length_c   7.88891100
_cell_angle_alpha   90.00000000
_cell_angle_beta   90.00000000
_cell_angle_gamma   90.00000000
_symmetry_Int_Tables_number   1
_chemical_formula_structural   SrYAlO4
_chemical_formula_sum   'Sr4 Y4 Al4 O16'
_cell_volume   659.388604911
_cell_formula_units_Z   4
loop_
 _symmetry_equiv_pos_site_id
 _symmetry_equiv_pos_as_xyz
  1  'x, y, z'
loop_
 _atom_site_type_symbol
 _atom_site_label
 _atom_site_symmetry_multiplicity
 _atom_site_fract_x
 _atom_site_fract_y
 _atom_site_fract_z
 _atom_site_occupancy
  Sr  Sr1  1  0.000000  0.000000  0.500000  1
  Sr  Sr2  1  0.000000  0.000000  0.000000  1
  Sr  Sr3  1  0.500000  0.500000  0.000000  1
  Sr  Sr4  1  0.500000  0.500000  0.500000  1
  Y  Y5  1  0.716000  0.992000  0.244000  1
  Y  Y6  1  0.284000  0.008000  0.744000  1
  Y  Y7  1  0.784000  0.492000  0.744000  1
  Y  Y8  1  0.216000  0.508000  0.244000  1
  Al  Al9  1  0.906000  0.434000  0.243000  1
  Al  Al10  1  0.094000  0.566000  0.743000  1
  Al  Al11  1  0.594000  0.934000  0.743000  1
  Al  Al12  1  0.406000  0.066000  0.243000  1
  O  O13  1  0.835000  0.274000  0.436000  1
  O  O14  1  0.165000  0.726000  0.936000  1
  O  O15  1  0.665000  0.774000  0.936000  1
  O  O16  1  0.335000  0.226000  0.436000  1
  O  O17  1  0.045000  0.276000  0.236000  1
  O  O18  1  0.955000  0.724000  0.736000  1
  O  O19  1  0.455000  0.776000  0.736000  1
  O  O20  1  0.545000  0.224000  0.236000  1
  O  O21  1  0.907000  0.778000  0.234000  1
  O  O22  1  0.093000  0.222000  0.734000  1
  O  O23  1  0.593000  0.278000  0.734000  1
  O  O24  1  0.407000  0.722000  0.234000  1
  O  O25  1  0.654000  0.768000  0.517000  1
  O  O26  1  0.346000  0.232000  0.017000  1
  O  O27  1  0.846000  0.268000  0.017000  1
  O  O28  1  0.154000  0.732000  0.517000  1
